
     RDKit          3D

 23 24  0  0  0  0  0  0  0  0999 V2000
    2.3055   56.7070   18.9663 O   0  0  0  0  0  0  0  0  0  0  0  0
    2.5247   53.6647   21.9387 C   0  0  0  0  0  0  0  0  0  0  0  0
    5.8171   60.0370   22.2685 C   0  0  0  0  0  0  0  0  0  0  0  0
    4.7300   60.2266   19.9794 C   0  0  0  0  0  0  0  0  0  0  0  0
    5.9330   59.4778   23.5396 C   0  0  0  0  0  0  0  0  0  0  0  0
    3.8141   53.1947   22.1813 C   0  0  0  0  0  0  0  0  0  0  0  0
    1.3921   51.8054   22.9687 C   0  0  0  0  0  0  0  0  0  0  0  0
    3.9184   58.6123   21.7874 C   0  0  0  0  0  0  0  0  0  0  0  0
    4.7472   55.1007   21.0114 C   0  0  0  0  0  0  0  0  0  0  0  0
    4.8274   59.6134   21.3605 C   0  0  0  0  0  0  0  0  0  0  0  0
    5.0452   58.4920   23.9481 C   0  0  0  0  0  0  0  0  0  0  0  0
    3.2718   56.8940   20.0078 C   0  0  0  0  0  0  0  0  0  0  0  0
    3.4608   55.5905   20.7578 C   0  0  0  0  0  0  0  0  0  0  0  0
    1.6639   50.6615   25.2382 C   0  0  0  0  0  0  0  0  0  0  0  0
    2.8156   58.0629   20.9005 C   0  0  0  0  0  0  0  0  0  0  0  0
    3.8950   61.4995   19.9770 C   0  0  0  0  0  0  0  0  0  0  0  0
    4.9211   53.9114   21.7186 C   0  0  0  0  0  0  0  0  0  0  0  0
    1.3552   53.0792   22.3350 O   0  0  0  0  0  0  0  0  0  0  0  0
    0.1212   51.1453   22.6829 N   0  0  0  0  0  0  0  0  0  0  0  0
    4.0434   58.0666   23.0807 C   0  0  0  0  0  0  0  0  0  0  0  0
    1.5618   51.9804   24.4860 C   0  0  0  0  0  0  0  0  0  0  0  0
    6.7302   61.0149   21.9821 O   0  0  0  0  0  0  0  0  0  0  0  0
    2.3580   54.8612   21.2331 C   0  0  0  0  0  0  0  0  0  0  0  0
  1 12  1  0
  2  6  4  0
  2 18  1  0
  2 23  4  0
  3  5  4  0
  3 10  4  0
  3 22  1  0
  4 10  1  0
  4 16  1  0
  5 11  4  0
  6 17  4  0
  7 18  1  0
  7 19  1  0
  7 21  1  0
  8 10  4  0
  8 15  1  0
  8 20  4  0
  9 13  4  0
  9 17  4  0
 11 20  4  0
 12 13  1  0
 12 15  1  0
 13 23  4  0
 14 21  1  0
M  END
>  <zinc_id>  (1) 


$$$$
