
     RDKit          3D

 25 27  0  0  0  0  0  0  0  0999 V2000
    0.8033   52.8235   22.1694 C   0  0  0  0  0  0  0  0  0  0  0  0
    3.8771   55.9449   21.5935 C   0  0  0  0  0  0  0  0  0  0  0  0
    6.2208   59.5550   21.4051 C   0  0  0  0  0  0  0  0  0  0  0  0
    4.0049   59.0420   20.6352 C   0  0  0  0  0  0  0  0  0  0  0  0
    2.1604   52.7603   22.7121 N   0  0  0  0  0  0  0  0  0  0  0  0
    4.3819   56.4794   20.2370 C   0  0  0  0  0  0  0  0  0  0  0  0
    3.5118   61.5931   22.8546 N   0  0  0  0  0  0  0  0  0  0  0  0
    2.4343   60.7747   19.5826 C   0  0  0  0  0  0  0  0  0  0  0  0
    4.7236   61.2082   22.1365 C   0  0  0  0  0  0  0  0  0  0  0  0
    5.0067   57.8884   20.2374 C   0  0  0  0  0  0  0  0  0  0  0  0
   -0.0150   53.7014   22.9221 O   0  0  0  0  0  0  0  0  0  0  0  0
    3.0775   50.7471   23.7699 C   0  0  0  0  0  0  0  0  0  0  0  0
    5.3352   55.5818   19.6656 O   0  0  0  0  0  0  0  0  0  0  0  0
    4.3619   53.9470   22.9424 C   0  0  0  0  0  0  0  0  0  0  0  0
    6.9460   60.1711   22.5861 C   0  0  0  0  0  0  0  0  0  0  0  0
    0.1008   51.4711   22.0393 C   0  0  0  0  0  0  0  0  0  0  0  0
    6.2737   58.0734   21.1129 C   0  0  0  0  0  0  0  0  0  0  0  0
    2.2910   52.0339   23.9826 C   0  0  0  0  0  0  0  0  0  0  0  0
    2.8162   54.8439   21.4087 C   0  0  0  0  0  0  0  0  0  0  0  0
    4.9282   55.2996   22.5140 C   0  0  0  0  0  0  0  0  0  0  0  0
    6.0294   61.3515   22.9880 C   0  0  0  0  0  0  0  0  0  0  0  0
    4.7532   59.7345   21.7767 C   0  0  0  0  0  0  0  0  0  0  0  0
    6.6729   62.5910   22.7230 O   0  0  0  0  0  0  0  0  0  0  0  0
    3.6696   59.9039   19.4048 C   0  0  0  0  0  0  0  0  0  0  0  0
    2.8465   54.0633   22.7299 C   0  0  0  0  0  0  0  0  0  0  0  0
  1  5  1  0
  1 11  1  0
  1 16  1  0
  2  6  1  0
  2 19  1  0
  2 20  1  0
  3 15  1  0
  3 17  1  0
  3 22  1  0
  4 10  1  0
  4 22  1  0
  4 24  1  0
  5 18  1  0
  5 25  1  0
  6 10  1  0
  6 13  1  0
  7  9  1  0
  8 24  1  0
  9 21  1  0
  9 22  1  0
 10 17  1  0
 12 18  1  0
 14 20  1  0
 14 25  1  0
 15 21  1  0
 19 25  1  0
 21 23  1  0
M  END
>  <zinc_id>  (1) 


$$$$
