
     RDKit          3D

 22 23  0  0  0  0  0  0  0  0999 V2000
    5.6570   57.2628   23.2481 C   0  0  0  0  0  0  0  0  0  0  0  0
    5.1381   57.3207   20.8880 C   0  0  0  0  0  0  0  0  0  0  0  0
    2.0920   51.6228   23.3742 O   0  0  0  0  0  0  0  0  0  0  0  0
    1.6069   53.8289   22.8226 O   0  0  0  0  0  0  0  0  0  0  0  0
    4.0657   60.5516   22.4873 N   0  0  0  0  0  0  0  0  0  0  0  0
    2.8423   57.1861   18.7964 O   0  0  0  0  0  0  0  0  0  0  0  0
    4.6133   59.2622   22.3064 C   0  0  0  0  0  0  0  0  0  0  0  0
    2.3977   55.3560   21.1407 C   0  0  0  0  0  0  0  0  0  0  0  0
    0.9209   52.0357   26.0481 C   0  0  0  0  0  0  0  0  0  0  0  0
    1.9026   52.9306   23.8857 C   0  0  0  0  0  0  0  0  0  0  0  0
    3.9433   53.7929   20.1475 C   0  0  0  0  0  0  0  0  0  0  0  0
    4.1851   61.1685   23.7378 O   0  0  0  0  0  0  0  0  0  0  0  0
    5.1202   56.6639   19.5285 C   0  0  0  0  0  0  0  0  0  0  0  0
    5.6716   56.6559   21.9959 C   0  0  0  0  0  0  0  0  0  0  0  0
    4.2630   61.5200   21.4084 C   0  0  0  0  0  0  0  0  0  0  0  0
    2.7540   54.2116   22.0895 C   0  0  0  0  0  0  0  0  0  0  0  0
    0.7015   52.9204   24.8304 C   0  0  0  0  0  0  0  0  0  0  0  0
    3.7644   56.1175   19.0288 C   0  0  0  0  0  0  0  0  0  0  0  0
    3.0712   54.9941   19.8153 C   0  0  0  0  0  0  0  0  0  0  0  0
    3.2128   53.1190   21.2276 N   0  0  0  0  0  0  0  0  0  0  0  0
    4.6280   58.6223   21.0558 C   0  0  0  0  0  0  0  0  0  0  0  0
    5.1226   58.5448   23.3997 C   0  0  0  0  0  0  0  0  0  0  0  0
  1 14  4  0
  1 22  4  0
  2 13  1  0
  2 14  4  0
  2 21  4  0
  3 10  1  0
  4 10  1  0
  4 16  1  0
  5  7  1  0
  5 12  1  0
  5 15  1  0
  6 18  1  0
  7 21  4  0
  7 22  4  0
  8 16  1  0
  8 19  1  0
  9 17  1  0
 10 17  1  0
 11 19  1  0
 11 20  1  0
 13 18  1  0
 16 20  1  0
 18 19  1  0
M  END
>  <zinc_id>  (1) 


$$$$
