
     RDKit          3D

 20 21  0  0  0  0  0  0  0  0999 V2000
    4.7575   59.4304   22.0552 C   0  0  0  0  0  0  0  0  0  0  0  0
    1.6952   52.0487   23.7822 C   0  0  0  0  0  0  0  0  0  0  0  0
    3.4366   61.4086   22.4524 O   0  0  0  0  0  0  0  0  0  0  0  0
    5.0599   57.1380   21.2579 C   0  0  0  0  0  0  0  0  0  0  0  0
    2.8476   54.9256   20.1733 C   0  0  0  0  0  0  0  0  0  0  0  0
    1.9808   55.6908   21.1879 C   0  0  0  0  0  0  0  0  0  0  0  0
    1.8120   54.7587   22.3870 C   0  0  0  0  0  0  0  0  0  0  0  0
    4.5778   60.9040   21.7600 C   0  0  0  0  0  0  0  0  0  0  0  0
    4.9891   57.6029   23.6379 C   0  0  0  0  0  0  0  0  0  0  0  0
    2.2368   53.3788   21.8929 C   0  0  0  0  0  0  0  0  0  0  0  0
    5.1999   56.1611   20.1142 C   0  0  0  0  0  0  0  0  0  0  0  0
    3.2814   56.8440   18.7529 O   0  0  0  0  0  0  0  0  0  0  0  0
    5.7946   61.7314   22.1513 C   0  0  0  0  0  0  0  0  0  0  0  0
    2.7270   52.5436   22.9318 O   0  0  0  0  0  0  0  0  0  0  0  0
    4.8072   58.9597   23.3751 C   0  0  0  0  0  0  0  0  0  0  0  0
    2.3260   51.1303   24.8103 C   0  0  0  0  0  0  0  0  0  0  0  0
    3.3715   53.7067   20.9286 C   0  0  0  0  0  0  0  0  0  0  0  0
    4.8902   58.5090   21.0050 C   0  0  0  0  0  0  0  0  0  0  0  0
    5.1195   56.6976   22.5856 C   0  0  0  0  0  0  0  0  0  0  0  0
    3.9041   55.7275   19.3951 C   0  0  0  0  0  0  0  0  0  0  0  0
  1  8  1  0
  1 15  4  0
  1 18  4  0
  2 14  1  0
  2 16  1  0
  3  8  1  0
  4 11  1  0
  4 18  4  0
  4 19  4  0
  5  6  1  0
  5 17  1  0
  5 20  1  0
  6  7  1  0
  7 10  1  0
  8 13  1  0
  9 15  4  0
  9 19  4  0
 10 14  1  0
 10 17  1  0
 11 20  1  0
 12 20  1  0
M  END
>  <zinc_id>  (1) 


$$$$
