
     RDKit          3D

 28 30  0  0  0  0  0  0  0  0999 V2000
    5.7531   58.5759   22.3195 N   0  0  0  0  0  0  0  0  0  0  0  0
    5.1967   62.7471   20.1226 O   0  0  0  0  0  0  0  0  0  0  0  0
    4.8357   54.0627   23.3048 C   0  0  0  0  0  0  0  0  0  0  0  0
    2.9385   59.9734   20.1744 C   0  0  0  0  0  0  0  0  0  0  0  0
    3.2793   52.2430   23.0396 C   0  0  0  0  0  0  0  0  0  0  0  0
    4.5719   58.5440   21.7346 C   0  0  0  0  0  0  0  0  0  0  0  0
    3.7001   57.3051   21.8583 C   0  0  0  0  0  0  0  0  0  0  0  0
    7.0455   61.8366   21.4218 C   0  0  0  0  0  0  0  0  0  0  0  0
    0.0649   50.9762   23.1401 C   0  0  0  0  0  0  0  0  0  0  0  0
   -0.1491   51.2727   20.6298 C   0  0  0  0  0  0  0  0  0  0  0  0
    5.8236   61.7789   20.8425 C   0  0  0  0  0  0  0  0  0  0  0  0
    4.4024   56.2602   22.4177 N   0  0  0  0  0  0  0  0  0  0  0  0
    6.0261   54.4896   23.8286 O   0  0  0  0  0  0  0  0  0  0  0  0
    2.3854   53.1030   22.4016 C   0  0  0  0  0  0  0  0  0  0  0  0
    0.7761   51.3867   21.8419 C   0  0  0  0  0  0  0  0  0  0  0  0
    8.5337   60.2540   22.8854 C   0  0  0  0  0  0  0  0  0  0  0  0
    7.9439   62.8703   21.3985 N   0  0  0  0  0  0  0  0  0  0  0  0
    6.2080   59.8039   21.9757 C   0  0  0  0  0  0  0  0  0  0  0  0
    4.5097   52.7238   23.4896 C   0  0  0  0  0  0  0  0  0  0  0  0
    5.2567   60.5046   21.1638 C   0  0  0  0  0  0  0  0  0  0  0  0
    2.7323   54.4499   22.2143 C   0  0  0  0  0  0  0  0  0  0  0  0
   -0.2870   49.4984   23.1977 C   0  0  0  0  0  0  0  0  0  0  0  0
    1.1468   52.7700   21.9270 O   0  0  0  0  0  0  0  0  0  0  0  0
    1.7993   60.5090   21.0281 C   0  0  0  0  0  0  0  0  0  0  0  0
    3.9670   54.9406   22.6445 C   0  0  0  0  0  0  0  0  0  0  0  0
    4.1715   59.7585   20.9641 C   0  0  0  0  0  0  0  0  0  0  0  0
    7.2894   60.5705   22.1453 C   0  0  0  0  0  0  0  0  0  0  0  0
    2.5368   57.3386   21.4979 O   0  0  0  0  0  0  0  0  0  0  0  0
  1  6  2  0
  1 18  1  0
  2 11  1  0
  3 13  1  0
  3 19  4  0
  3 25  4  0
  4 24  1  0
  4 26  1  0
  5 14  4  0
  5 19  4  0
  6  7  1  0
  6 26  1  0
  7 12  1  0
  7 28  2  0
  8 11  2  0
  8 17  1  0
  8 27  1  0
  9 15  1  0
  9 22  1  0
 10 15  1  0
 11 20  1  0
 12 25  1  0
 14 21  4  0
 14 23  1  0
 15 23  1  0
 16 27  1  0
 18 20  1  0
 18 27  2  0
 20 26  2  0
 21 25  4  0
M  END
>  <zinc_id>  (1) 


$$$$

     RDKit          3D

 27 29  0  0  0  0  0  0  0  0999 V2000
    5.0117   55.5411   19.2037 O   0  0  0  0  0  0  0  0  0  0  0  0
    5.1374   61.0551   21.9663 C   0  0  0  0  0  0  0  0  0  0  0  0
    7.7103   59.5902   21.6073 C   0  0  0  0  0  0  0  0  0  0  0  0
    4.0987   55.7013   21.4002 C   0  0  0  0  0  0  0  0  0  0  0  0
    2.9037   53.9179   22.6733 C   0  0  0  0  0  0  0  0  0  0  0  0
    4.2353   56.3978   20.0592 C   0  0  0  0  0  0  0  0  0  0  0  0
    4.1249   59.0674   20.5494 C   0  0  0  0  0  0  0  0  0  0  0  0
    6.4815   59.3575   20.7391 C   0  0  0  0  0  0  0  0  0  0  0  0
    1.2505   52.4358   21.5499 C   0  0  0  0  0  0  0  0  0  0  0  0
    1.2894   52.6576   24.0557 C   0  0  0  0  0  0  0  0  0  0  0  0
    3.7296   54.2349   23.7612 C   0  0  0  0  0  0  0  0  0  0  0  0
    4.8911   55.9579   22.5158 C   0  0  0  0  0  0  0  0  0  0  0  0
    4.8044   57.8234   19.8890 C   0  0  0  0  0  0  0  0  0  0  0  0
    2.6632   58.9607   21.0053 C   0  0  0  0  0  0  0  0  0  0  0  0
    1.8928   51.4515   24.7641 C   0  0  0  0  0  0  0  0  0  0  0  0
    3.9804   61.3497   22.7489 O   0  0  0  0  0  0  0  0  0  0  0  0
    4.7054   55.2332   23.6894 C   0  0  0  0  0  0  0  0  0  0  0  0
    0.1257   53.2637   21.3417 O   0  0  0  0  0  0  0  0  0  0  0  0
    0.7971   50.9843   21.6194 C   0  0  0  0  0  0  0  0  0  0  0  0
    6.3753   61.3708   22.8380 C   0  0  0  0  0  0  0  0  0  0  0  0
    3.1275   54.6711   21.5035 C   0  0  0  0  0  0  0  0  0  0  0  0
    6.3724   62.7617   23.1673 O   0  0  0  0  0  0  0  0  0  0  0  0
    6.3238   57.9592   20.1588 C   0  0  0  0  0  0  0  0  0  0  0  0
    7.6948   61.0234   22.1446 C   0  0  0  0  0  0  0  0  0  0  0  0
    1.9370   52.9053   22.7535 N   0  0  0  0  0  0  0  0  0  0  0  0
    2.3751   58.5090   22.4272 C   0  0  0  0  0  0  0  0  0  0  0  0
    5.1851   59.5865   21.5331 C   0  0  0  0  0  0  0  0  0  0  0  0
  1  6  1  0
  2 16  1  0
  2 20  1  0
  2 27  1  0
  3  8  1  0
  3 24  1  0
  4  6  1  0
  4 12  4  0
  4 21  4  0
  5 11  4  0
  5 21  4  0
  5 25  1  0
  6 13  1  0
  7 13  1  0
  7 14  1  0
  7 27  1  0
  8 23  1  0
  8 27  1  0
  9 18  1  0
  9 19  1  0
  9 25  1  0
 10 15  1  0
 10 25  1  0
 11 17  4  0
 12 17  4  0
 13 23  1  0
 14 26  1  0
 20 22  1  0
 20 24  1  0
M  END
>  <zinc_id>  (1) 


$$$$
