=
 OpenBabel12172413013D

 33 35  0  0  1  0  0  0  0  0999 V2000
    5.5350   58.6500   21.5330 C   0  0  0  0  0  0  0  0  0  0  0  0
    5.0580   57.4700   21.0050 N   0  0  0  0  0  0  0  0  0  0  0  0
    5.4160   59.0850   22.6640 O   0  0  0  0  0  0  0  0  0  0  0  0
    5.3190   57.2790   20.0740 H   0  0  0  0  0  0  0  0  0  0  0  0
    6.8910   58.8010   19.4870 N   0  0  0  0  0  0  0  0  0  0  0  0
    6.3210   59.4340   20.4940 C   0  0  0  0  0  0  0  0  0  0  0  0
    8.4350   61.4680   17.5870 C   0  0  0  0  0  0  0  0  0  0  0  0
    7.8500   62.0880   18.6380 C   0  0  0  0  0  0  0  0  0  0  0  0
    8.6530   59.0090   16.7090 C   0  0  0  0  0  1  0  0  0  0  0  0
    7.4650   59.8170   18.8010 C   0  0  0  0  0  0  0  0  0  0  0  0
    7.2180   61.0800   19.4330 C   0  0  0  0  0  0  0  0  0  0  0  0
    6.4870   60.9170   20.5350 C   0  0  0  0  0  0  0  0  0  0  0  0
    8.1860   60.0150   17.6930 C   0  0  0  0  0  0  0  0  0  0  0  0
    9.1660   62.0300   16.5740 N   0  0  0  0  0  0  0  0  0  0  0  0
    8.7120   62.5410   15.8650 H   0  0  0  0  0  0  0  0  0  0  0  0
   10.1450   61.9230   16.5540 H   0  0  0  0  0  0  0  0  0  0  0  0
    7.8750   63.4120   18.9420 O   0  0  0  0  0  0  0  0  0  0  0  0
    7.1230   63.9460   18.7730 H   0  0  0  0  0  0  0  0  0  0  0  0
    5.9170   61.8730   21.5110 C   0  0  0  0  0  2  0  0  0  0  0  0
    4.4460   62.1530   21.2440 C   0  0  0  0  0  1  0  0  0  0  0  0
    3.8800   55.3720   20.8860 C   0  0  0  0  0  0  0  0  0  0  0  0
    2.5140   54.5640   22.6990 C   0  0  0  0  0  3  0  0  0  0  0  0
    2.8830   55.6690   23.4670 C   0  0  0  0  0  0  0  0  0  0  0  0
    3.0120   54.4170   21.4030 C   0  0  0  0  0  3  0  0  0  0  0  0
    3.7520   56.6300   22.9280 C   0  0  0  0  0  3  0  0  0  0  0  0
    4.2450   56.5040   21.6260 C   0  0  0  0  0  0  0  0  0  0  0  0
    4.3880   55.1370   19.6370 O   0  0  0  0  0  0  0  0  0  0  0  0
    3.8220   54.8480   18.9480 H   0  0  0  0  0  0  0  0  0  0  0  0
    2.4830   55.9290   24.7480 O   0  0  0  0  0  0  0  0  0  0  0  0
    3.5430   56.8100   26.6730 C   0  0  0  0  0  1  0  0  0  0  0  0
    2.8500   57.1740   25.3600 C   0  0  2  0  0  3  0  0  0  0  0  0
    1.5830   58.0090   25.5990 C   0  0  0  0  0  2  0  0  0  0  0  0
    1.4240   59.1640   24.6220 C   0  0  0  0  0  1  0  0  0  0  0  0
  1  3  2  0  0  0  0
  2  1  1  0  0  0  0
  2 26  1  0  0  0  0
  4  2  1  0  0  0  0
  5  6  1  0  0  0  0
  6 12  2  0  0  0  0
  6  1  1  0  0  0  0
  7 13  2  0  0  0  0
  7  8  1  0  0  0  0
  8 17  1  0  0  0  0
  8 11  2  0  0  0  0
  9 13  1  0  0  0  0
 10 11  1  0  0  0  0
 10  5  2  0  0  0  0
 11 12  1  0  0  0  0
 12 19  1  0  0  0  0
 13 10  1  0  0  0  0
 14  7  1  0  0  0  0
 15 14  1  0  0  0  0
 16 14  1  0  0  0  0
 18 17  1  0  0  0  0
 20 19  1  0  0  0  0
 21 24  2  0  0  0  0
 21 26  1  0  0  0  0
 22 23  2  0  0  0  0
 23 29  1  0  0  0  0
 24 22  1  0  0  0  0
 25 23  1  0  0  0  0
 26 25  2  0  0  0  0
 27 21  1  0  0  0  0
 28 27  1  0  0  0  0
 29 31  1  0  0  0  0
 31 32  1  0  0  0  0
 31 30  1  1  0  0  0
 33 32  1  0  0  0  0
M  END
>  <MODEL>
1

>  <REMARK>
 VINA RESULT:      -8.3      0.000      0.000
  Name = 
  13 active torsions:
  status: ('A' for Active; 'I' for Inactive)
    1  A    between atoms: O_2  and  C_11
    2  A    between atoms: C_3  and  O_13
    3  A    between atoms: C_4  and  C_24
    4  A    between atoms: C_4  and  C_26
    5  A    between atoms: C_6  and  C_7
    6  A    between atoms: C_8  and  N_17
    7  A    between atoms: C_9  and  C_15
    8  A    between atoms: C_9  and  C_22
    9  A    between atoms: C_10  and  C_15
   10  A    between atoms: N_12  and  C_25
   11  A    between atoms: C_14  and  O_23
   12  A    between atoms: C_15  and  O_23
   13  A    between atoms: C_16  and  C_27
                            x       y       z     vdW  Elec       q    Type
                         _______ _______ _______ _____ _____    ______ ____

>  <TORSDO>
F 9

$$$$
=
 OpenBabel12172413023D

 31 33  0  0  1  0  0  0  0  0999 V2000
    3.9030   57.9030   23.3800 C   0  0  2  0  0  3  0  0  0  0  0  0
    5.8960   61.7280   20.6340 C   0  0  1  0  0  3  0  0  0  0  0  0
    7.3830   59.2020   20.0840 C   0  0  0  0  0  2  0  0  0  0  0  0
    4.1770   60.1280   21.8460 C   0  0  2  0  0  3  0  0  0  0  0  0
    5.9130   59.2450   20.4760 C   0  0  1  0  0  3  0  0  0  0  0  0
    4.1580   58.5740   22.0130 C   0  0  1  0  0  3  0  0  0  0  0  0
    7.3750   61.7440   20.1800 C   0  0  1  0  0  3  0  0  0  0  0  0
    5.3870   58.0350   21.2360 C   0  0  0  0  0  2  0  0  0  0  0  0
    7.7620   60.5030   19.3710 C   0  0  0  0  0  2  0  0  0  0  0  0
    5.6170   60.4340   21.4030 C   0  0  1  0  0  3  0  0  0  0  0  0
    3.5210   60.9990   22.9270 C   0  0  0  0  0  2  0  0  0  0  0  0
    4.4040   61.6190   23.9970 C   0  0  0  0  0  1  0  0  0  0  0  0
    5.6850   62.8900   21.4360 O   0  0  0  0  0  0  0  0  0  0  0  0
    6.1420   63.6460   21.0350 H   0  0  0  0  0  0  0  0  0  0  0  0
    7.6080   62.9100   19.3880 O   0  0  0  0  0  0  0  0  0  0  0  0
    6.7640   63.3500   19.2030 H   0  0  0  0  0  0  0  0  0  0  0  0
    4.9490   57.8020   24.4740 C   0  0  0  0  0  0  0  0  0  0  0  0
    5.7590   58.7580   26.6320 C   0  0  0  0  0  0  0  0  0  0  0  0
    6.7350   57.7510   26.6350 C   0  0  0  0  0  3  0  0  0  0  0  0
    5.9380   56.8230   24.5440 C   0  0  0  0  0  3  0  0  0  0  0  0
    6.8260   56.8010   25.6150 C   0  0  0  0  0  3  0  0  0  0  0  0
    4.8760   58.7430   25.5340 C   0  0  0  0  0  3  0  0  0  0  0  0
    5.6700   59.6990   27.6690 N   0  0  0  0  0  0  0  0  0  0  0  0
    6.0980   61.0810   27.4570 C   0  0  1  0  0  3  0  0  0  0  0  0
    4.9940   62.1110   27.6510 C   0  0  0  0  0  1  0  0  0  0  0  0
    7.1490   61.3520   28.3600 O   0  0  0  0  0  0  0  0  0  0  0  0
    7.9530   61.5730   27.8640 H   0  0  0  0  0  0  0  0  0  0  0  0
    5.6000   59.2050   29.0580 C   0  0  0  0  0  2  0  0  0  0  0  0
    4.2230   58.6400   29.3840 C   0  0  0  0  0  1  0  0  0  0  0  0
    3.4370   56.5710   23.1030 O   0  0  0  0  0  0  0  0  0  0  0  0
    3.3950   56.0650   23.9290 H   0  0  0  0  0  0  0  0  0  0  0  0
  1 30  1  6  0  0  0
  1 17  1  0  0  0  0
  2 10  1  0  0  0  0
  2 13  1  1  0  0  0
  4  6  1  0  0  0  0
  4 11  1  1  0  0  0
  5  3  1  1  0  0  0
  5  8  1  0  0  0  0
  5 10  1  0  0  0  0
  6  1  1  1  0  0  0
  7 15  1  6  0  0  0
  7  2  1  0  0  0  0
  8  6  1  0  0  0  0
  9  3  1  0  0  0  0
  9  7  1  0  0  0  0
 10  4  1  0  0  0  0
 11 12  1  0  0  0  0
 14 13  1  0  0  0  0
 16 15  1  0  0  0  0
 17 20  2  0  0  0  0
 17 22  1  0  0  0  0
 18 19  1  0  0  0  0
 18 23  1  0  0  0  0
 20 21  1  0  0  0  0
 21 19  2  0  0  0  0
 22 18  2  0  0  0  0
 23 28  1  0  0  0  0
 24 25  1  0  0  0  0
 24 23  1  0  0  0  0
 24 26  1  0  0  0  0
 27 26  1  0  0  0  0
 28 29  1  0  0  0  0
 30 31  1  0  0  0  0
M  END
>  <MODEL>
1

>  <REMARK>
 VINA RESULT:      -7.8      0.000      0.000
  Name = 
  13 active torsions:
  status: ('A' for Active; 'I' for Inactive)
    1  A    between atoms: O_1  and  C_6
    2  A    between atoms: C_2  and  O_16
    3  A    between atoms: C_4  and  C_6
    4  A    between atoms: C_5  and  N_25
    5  A    between atoms: C_6  and  C_13
    6  A    between atoms: C_7  and  C_14
    7  A    between atoms: C_9  and  O_18
    8  A    between atoms: C_9  and  C_19
    9  A    between atoms: C_9  and  N_25
   10  A    between atoms: C_10  and  C_15
   11  A    between atoms: C_10  and  N_25
   12  A    between atoms: C_14  and  C_26
   13  A    between atoms: C_20  and  O_22
                            x       y       z     vdW  Elec       q    Type
                         _______ _______ _______ _____ _____    ______ ____

>  <TORSDO>
F 10

$$$$
