
     RDKit          3D

 28 30  0  0  0  0  0  0  0  0999 V2000
    5.7531   58.5759   22.3195 N   0  0  0  0  0  0  0  0  0  0  0  0
    5.1968   62.7471   20.1226 O   0  0  0  0  0  0  0  0  0  0  0  0
    4.8357   54.0627   23.3048 C   0  0  0  0  0  0  0  0  0  0  0  0
    2.9385   59.9734   20.1744 C   0  0  0  0  0  0  0  0  0  0  0  0
    3.2793   52.2430   23.0396 C   0  0  0  0  0  0  0  0  0  0  0  0
    4.5719   58.5440   21.7346 C   0  0  0  0  0  0  0  0  0  0  0  0
    3.7001   57.3051   21.8584 C   0  0  0  0  0  0  0  0  0  0  0  0
    7.0455   61.8366   21.4218 C   0  0  0  0  0  0  0  0  0  0  0  0
    0.0649   50.9762   23.1401 C   0  0  0  0  0  0  0  0  0  0  0  0
   -0.1491   51.2727   20.6298 C   0  0  0  0  0  0  0  0  0  0  0  0
    5.8236   61.7789   20.8425 C   0  0  0  0  0  0  0  0  0  0  0  0
    4.4024   56.2602   22.4177 N   0  0  0  0  0  0  0  0  0  0  0  0
    6.0261   54.4896   23.8286 O   0  0  0  0  0  0  0  0  0  0  0  0
    2.3854   53.1030   22.4016 C   0  0  0  0  0  0  0  0  0  0  0  0
    0.7761   51.3867   21.8419 C   0  0  0  0  0  0  0  0  0  0  0  0
    8.5337   60.2540   22.8854 C   0  0  0  0  0  0  0  0  0  0  0  0
    7.9439   62.8703   21.3985 N   0  0  0  0  0  0  0  0  0  0  0  0
    6.2080   59.8039   21.9757 C   0  0  0  0  0  0  0  0  0  0  0  0
    4.5097   52.7238   23.4895 C   0  0  0  0  0  0  0  0  0  0  0  0
    5.2567   60.5046   21.1638 C   0  0  0  0  0  0  0  0  0  0  0  0
    2.7323   54.4499   22.2143 C   0  0  0  0  0  0  0  0  0  0  0  0
   -0.2870   49.4984   23.1978 C   0  0  0  0  0  0  0  0  0  0  0  0
    1.1468   52.7700   21.9270 O   0  0  0  0  0  0  0  0  0  0  0  0
    1.7993   60.5090   21.0281 C   0  0  0  0  0  0  0  0  0  0  0  0
    3.9670   54.9406   22.6445 C   0  0  0  0  0  0  0  0  0  0  0  0
    4.1715   59.7584   20.9641 C   0  0  0  0  0  0  0  0  0  0  0  0
    7.2894   60.5705   22.1453 C   0  0  0  0  0  0  0  0  0  0  0  0
    2.5368   57.3386   21.4979 O   0  0  0  0  0  0  0  0  0  0  0  0
  1  6  2  0
  1 18  1  0
  2 11  1  0
  3 13  1  0
  3 19  4  0
  3 25  4  0
  4 24  1  0
  4 26  1  0
  5 14  4  0
  5 19  4  0
  6  7  1  0
  6 26  1  0
  7 12  1  0
  7 28  2  0
  8 11  2  0
  8 17  1  0
  8 27  1  0
  9 15  1  0
  9 22  1  0
 10 15  1  0
 11 20  1  0
 12 25  1  0
 14 21  4  0
 14 23  1  0
 15 23  1  0
 16 27  1  0
 18 20  1  0
 18 27  2  0
 20 26  2  0
 21 25  4  0
M  END
$$$$

     RDKit          3D

 27 29  0  0  0  0  0  0  0  0999 V2000
    4.8679   55.5645   19.2148 O   0  0  0  0  0  0  0  0  0  0  0  0
    5.1959   61.0817   21.9528 C   0  0  0  0  0  0  0  0  0  0  0  0
    7.7376   59.5574   21.6122 C   0  0  0  0  0  0  0  0  0  0  0  0
    4.0284   55.7344   21.4379 C   0  0  0  0  0  0  0  0  0  0  0  0
    2.8814   53.8994   22.6828 C   0  0  0  0  0  0  0  0  0  0  0  0
    4.1510   56.4444   20.1018 C   0  0  0  0  0  0  0  0  0  0  0  0
    4.1447   59.1201   20.5538 C   0  0  0  0  0  0  0  0  0  0  0  0
    6.5063   59.3347   20.7457 C   0  0  0  0  0  0  0  0  0  0  0  0
    1.3109   52.3565   21.5239 C   0  0  0  0  0  0  0  0  0  0  0  0
    1.2855   52.5799   24.0286 C   0  0  0  0  0  0  0  0  0  0  0  0
    3.6730   54.2451   23.7872 C   0  0  0  0  0  0  0  0  0  0  0  0
    4.7852   56.0202   22.5701 C   0  0  0  0  0  0  0  0  0  0  0  0
    4.7785   57.8425   19.9186 C   0  0  0  0  0  0  0  0  0  0  0  0
    2.6816   59.1030   21.0119 C   0  0  0  0  0  0  0  0  0  0  0  0
    1.9142   51.3974   24.7545 C   0  0  0  0  0  0  0  0  0  0  0  0
    4.0312   61.3697   22.7241 O   0  0  0  0  0  0  0  0  0  0  0  0
    4.6072   55.2838   23.7376 C   0  0  0  0  0  0  0  0  0  0  0  0
    0.1531   53.1332   21.3002 O   0  0  0  0  0  0  0  0  0  0  0  0
    0.9223   50.8856   21.5803 C   0  0  0  0  0  0  0  0  0  0  0  0
    6.4421   61.3945   22.8116 C   0  0  0  0  0  0  0  0  0  0  0  0
    3.0963   54.6661   21.5205 C   0  0  0  0  0  0  0  0  0  0  0  0
    6.4436   62.7957   23.1051 O   0  0  0  0  0  0  0  0  0  0  0  0
    6.3022   57.9270   20.1987 C   0  0  0  0  0  0  0  0  0  0  0  0
    7.7523   61.0028   22.1195 C   0  0  0  0  0  0  0  0  0  0  0  0
    1.9558   52.8476   22.7418 N   0  0  0  0  0  0  0  0  0  0  0  0
    2.3570   58.5679   22.3958 C   0  0  0  0  0  0  0  0  0  0  0  0
    5.2188   59.6129   21.5331 C   0  0  0  0  0  0  0  0  0  0  0  0
  1  6  1  0
  2 16  1  0
  2 20  1  0
  2 27  1  0
  3  8  1  0
  3 24  1  0
  4  6  1  0
  4 12  4  0
  4 21  4  0
  5 11  4  0
  5 21  4  0
  5 25  1  0
  6 13  1  0
  7 13  1  0
  7 14  1  0
  7 27  1  0
  8 23  1  0
  8 27  1  0
  9 18  1  0
  9 19  1  0
  9 25  1  0
 10 15  1  0
 10 25  1  0
 11 17  4  0
 12 17  4  0
 13 23  1  0
 14 26  1  0
 20 22  1  0
 20 24  1  0
M  END
$$$$
