MODEL 1
REMARK VINA RESULT:      -8.3      0.000      0.000
REMARK  Name = 
REMARK  13 active torsions:
REMARK  status: ('A' for Active; 'I' for Inactive)
REMARK    1  A    between atoms: O_2  and  C_11
REMARK    2  A    between atoms: C_3  and  O_13
REMARK    3  A    between atoms: C_4  and  C_24
REMARK    4  A    between atoms: C_4  and  C_26
REMARK    5  A    between atoms: C_6  and  C_7
REMARK    6  A    between atoms: C_8  and  N_17
REMARK    7  A    between atoms: C_9  and  C_15
REMARK    8  A    between atoms: C_9  and  C_22
REMARK    9  A    between atoms: C_10  and  C_15
REMARK   10  A    between atoms: N_12  and  C_25
REMARK   11  A    between atoms: C_14  and  O_23
REMARK   12  A    between atoms: C_15  and  O_23
REMARK   13  A    between atoms: C_16  and  C_27
REMARK                            x       y       z     vdW  Elec       q    Type
REMARK                         _______ _______ _______ _____ _____    ______ ____
ROOT
ATOM      1  C   UNL     1       5.535  58.650  21.533  0.00  0.00    +0.000 C 
ATOM      2  N   UNL     1       5.058  57.470  21.005  0.00  0.00    +0.000 N 
ATOM      3  O   UNL     1       5.416  59.085  22.664  0.00  0.00    +0.000 OA
ATOM      4  H   UNL     1       5.319  57.279  20.074  0.00  0.00    +0.000 HD
ENDROOT
BRANCH   1   6
ATOM      5  N   UNL     1       6.891  58.801  19.487  0.00  0.00    +0.000 NA
ATOM      6  C   UNL     1       6.321  59.434  20.494  0.00  0.00    +0.000 C 
ATOM      7  C   UNL     1       8.435  61.468  17.587  0.00  0.00    +0.000 C 
ATOM      8  C   UNL     1       7.850  62.088  18.638  0.00  0.00    +0.000 C 
ATOM      9  C   UNL     1       8.653  59.009  16.709  0.00  0.00    +0.000 C 
ATOM     10  C   UNL     1       7.465  59.817  18.801  0.00  0.00    +0.000 C 
ATOM     11  C   UNL     1       7.218  61.080  19.433  0.00  0.00    +0.000 C 
ATOM     12  C   UNL     1       6.487  60.917  20.535  0.00  0.00    +0.000 C 
ATOM     13  C   UNL     1       8.186  60.015  17.693  0.00  0.00    +0.000 C 
BRANCH   7  14
ATOM     14  N   UNL     1       9.166  62.030  16.574  0.00  0.00    +0.000 N 
ATOM     15  H   UNL     1       8.712  62.541  15.865  0.00  0.00    +0.000 HD
ATOM     16  H   UNL     1      10.145  61.923  16.554  0.00  0.00    +0.000 HD
ENDBRANCH   7  14
BRANCH   8  17
ATOM     17  O   UNL     1       7.875  63.412  18.942  0.00  0.00    +0.000 OA
ATOM     18  H   UNL     1       7.123  63.946  18.773  0.00  0.00    +0.000 HD
ENDBRANCH   8  17
BRANCH  12  19
ATOM     19  C   UNL     1       5.917  61.873  21.511  0.00  0.00    +0.000 C 
ATOM     20  C   UNL     1       4.446  62.153  21.244  0.00  0.00    +0.000 C 
ENDBRANCH  12  19
ENDBRANCH   1   6
BRANCH   2  26
ATOM     21  C   UNL     1       3.880  55.372  20.886  0.00  0.00    +0.000 A 
ATOM     22  C   UNL     1       2.514  54.564  22.699  0.00  0.00    +0.000 A 
ATOM     23  C   UNL     1       2.883  55.669  23.467  0.00  0.00    +0.000 A 
ATOM     24  C   UNL     1       3.012  54.417  21.403  0.00  0.00    +0.000 A 
ATOM     25  C   UNL     1       3.752  56.630  22.928  0.00  0.00    +0.000 A 
ATOM     26  C   UNL     1       4.245  56.504  21.626  0.00  0.00    +0.000 A 
BRANCH  21  27
ATOM     27  O   UNL     1       4.388  55.137  19.637  0.00  0.00    +0.000 OA
ATOM     28  H   UNL     1       3.822  54.848  18.948  0.00  0.00    +0.000 HD
ENDBRANCH  21  27
BRANCH  23  29
ATOM     29  O   UNL     1       2.483  55.929  24.748  0.00  0.00    +0.000 OA
BRANCH  29  31
ATOM     30  C   UNL     1       3.543  56.810  26.673  0.00  0.00    +0.000 C 
ATOM     31  C   UNL     1       2.850  57.174  25.360  0.00  0.00    +0.000 C 
BRANCH  31  32
ATOM     32  C   UNL     1       1.583  58.009  25.599  0.00  0.00    +0.000 C 
ATOM     33  C   UNL     1       1.424  59.164  24.622  0.00  0.00    +0.000 C 
ENDBRANCH  31  32
ENDBRANCH  29  31
ENDBRANCH  23  29
ENDBRANCH   2  26
TORSDOF 9
ENDMDL

MODEL 2
REMARK VINA RESULT:      -7.8      0.000      0.000
REMARK  Name = 
REMARK  13 active torsions:
REMARK  status: ('A' for Active; 'I' for Inactive)
REMARK    1  A    between atoms: O_1  and  C_6
REMARK    2  A    between atoms: C_2  and  O_16
REMARK    3  A    between atoms: C_4  and  C_6
REMARK    4  A    between atoms: C_5  and  N_25
REMARK    5  A    between atoms: C_6  and  C_13
REMARK    6  A    between atoms: C_7  and  C_14
REMARK    7  A    between atoms: C_9  and  O_18
REMARK    8  A    between atoms: C_9  and  C_19
REMARK    9  A    between atoms: C_9  and  N_25
REMARK   10  A    between atoms: C_10  and  C_15
REMARK   11  A    between atoms: C_10  and  N_25
REMARK   12  A    between atoms: C_14  and  C_26
REMARK   13  A    between atoms: C_20  and  O_22
REMARK                            x       y       z     vdW  Elec       q    Type
REMARK                         _______ _______ _______ _____ _____    ______ ____
ROOT
ATOM      1  C   UNL     1       3.903  57.903  23.380  0.00  0.00    +0.000 C 
ENDROOT
BRANCH   1   6
ATOM      2  C   UNL     1       5.896  61.728  20.634  0.00  0.00    +0.000 C 
ATOM      3  C   UNL     1       7.383  59.202  20.084  0.00  0.00    +0.000 C 
ATOM      4  C   UNL     1       4.177  60.128  21.846  0.00  0.00    +0.000 C 
ATOM      5  C   UNL     1       5.913  59.245  20.476  0.00  0.00    +0.000 C 
ATOM      6  C   UNL     1       4.158  58.574  22.013  0.00  0.00    +0.000 C 
ATOM      7  C   UNL     1       7.375  61.744  20.180  0.00  0.00    +0.000 C 
ATOM      8  C   UNL     1       5.387  58.035  21.236  0.00  0.00    +0.000 C 
ATOM      9  C   UNL     1       7.762  60.503  19.371  0.00  0.00    +0.000 C 
ATOM     10  C   UNL     1       5.617  60.434  21.403  0.00  0.00    +0.000 C 
BRANCH   4  11
ATOM     11  C   UNL     1       3.521  60.999  22.927  0.00  0.00    +0.000 C 
ATOM     12  C   UNL     1       4.404  61.619  23.997  0.00  0.00    +0.000 C 
ENDBRANCH   4  11
BRANCH   2  13
ATOM     13  O   UNL     1       5.685  62.890  21.436  0.00  0.00    +0.000 OA
ATOM     14  H   UNL     1       6.142  63.646  21.035  0.00  0.00    +0.000 HD
ENDBRANCH   2  13
BRANCH   7  15
ATOM     15  O   UNL     1       7.608  62.910  19.388  0.00  0.00    +0.000 OA
ATOM     16  H   UNL     1       6.764  63.350  19.203  0.00  0.00    +0.000 HD
ENDBRANCH   7  15
ENDBRANCH   1   6
BRANCH   1  17
ATOM     17  C   UNL     1       4.949  57.802  24.474  0.00  0.00    +0.000 A 
ATOM     18  C   UNL     1       5.759  58.758  26.632  0.00  0.00    +0.000 A 
ATOM     19  C   UNL     1       6.735  57.751  26.635  0.00  0.00    +0.000 A 
ATOM     20  C   UNL     1       5.938  56.823  24.544  0.00  0.00    +0.000 A 
ATOM     21  C   UNL     1       6.826  56.801  25.615  0.00  0.00    +0.000 A 
ATOM     22  C   UNL     1       4.876  58.743  25.534  0.00  0.00    +0.000 A 
BRANCH  18  23
ATOM     23  N   UNL     1       5.670  59.699  27.669  0.00  0.00    +0.000 N 
BRANCH  23  24
ATOM     24  C   UNL     1       6.098  61.081  27.457  0.00  0.00    +0.000 C 
ATOM     25  C   UNL     1       4.994  62.111  27.651  0.00  0.00    +0.000 C 
BRANCH  24  26
ATOM     26  O   UNL     1       7.149  61.352  28.360  0.00  0.00    +0.000 OA
ATOM     27  H   UNL     1       7.953  61.573  27.864  0.00  0.00    +0.000 HD
ENDBRANCH  24  26
ENDBRANCH  23  24
BRANCH  23  28
ATOM     28  C   UNL     1       5.600  59.205  29.058  0.00  0.00    +0.000 C 
ATOM     29  C   UNL     1       4.223  58.640  29.384  0.00  0.00    +0.000 C 
ENDBRANCH  23  28
ENDBRANCH  18  23
ENDBRANCH   1  17
BRANCH   1  30
ATOM     30  O   UNL     1       3.437  56.571  23.103  0.00  0.00    +0.000 OA
ATOM     31  H   UNL     1       3.395  56.065  23.929  0.00  0.00    +0.000 HD
ENDBRANCH   1  30
TORSDOF 10
ENDMDL

