
     RDKit          3D

 21 23  0  0  0  0  0  0  0  0999 V2000
    5.6119   57.9007   21.8845 N   0  0  0  0  0  0  0  0  0  0  0  0
    0.8398   50.5427   23.4312 N   0  0  0  0  0  0  0  0  0  0  0  0
    3.2131   55.8843   21.6969 N   0  0  0  0  0  0  0  0  0  0  0  0
    3.2550   57.2555   21.5091 C   0  0  0  0  0  0  0  0  0  0  0  0
    4.9509   60.0834   21.4059 C   0  0  0  0  0  0  0  0  0  0  0  0
    6.5043   61.4770   22.5503 C   0  0  0  0  0  0  0  0  0  0  0  0
    6.1638   59.2422   21.7627 C   0  0  0  0  0  0  0  0  0  0  0  0
    2.3291   57.9704   21.8976 O   0  0  0  0  0  0  0  0  0  0  0  0
    3.5786   53.5639   21.6077 C   0  0  0  0  0  0  0  0  0  0  0  0
    6.3330   61.5954   20.1054 O   0  0  0  0  0  0  0  0  0  0  0  0
    2.5968   53.8602   22.7453 C   0  0  0  0  0  0  0  0  0  0  0  0
    7.7247   62.1409   22.2236 O   0  0  0  0  0  0  0  0  0  0  0  0
    2.0968   55.2613   22.3869 C   0  0  0  0  0  0  0  0  0  0  0  0
    4.2432   54.9137   21.3715 C   0  0  0  0  0  0  0  0  0  0  0  0
    1.9623   51.4616   23.2891 C   0  0  0  0  0  0  0  0  0  0  0  0
    4.4177   59.2735   20.2485 C   0  0  0  0  0  0  0  0  0  0  0  0
    3.0751   59.7415   19.7178 C   0  0  0  0  0  0  0  0  0  0  0  0
    4.5280   57.8306   20.8294 C   0  0  0  0  0  0  0  0  0  0  0  0
    5.5679   61.4596   21.3022 C   0  0  0  0  0  0  0  0  0  0  0  0
    6.7473   59.9974   22.9426 C   0  0  0  0  0  0  0  0  0  0  0  0
    1.4603   52.8469   22.8829 C   0  0  0  0  0  0  0  0  0  0  0  0
  1  7  1  0
  1 18  1  0
  2 15  1  0
  3  4  1  0
  3 13  1  0
  3 14  1  0
  4  8  2  0
  4 18  1  0
  5  7  1  0
  5 16  1  0
  5 19  1  0
  6 12  1  0
  6 19  1  0
  6 20  1  0
  7 20  1  0
  9 11  1  0
  9 14  1  0
 10 19  1  0
 11 13  1  0
 11 21  1  0
 15 21  1  0
 16 17  1  0
 16 18  1  0
M  END
$$$$

     RDKit          3D

 23 24  0  0  0  0  0  0  0  0999 V2000
    2.3055   56.7070   18.9663 O   0  0  0  0  0  0  0  0  0  0  0  0
    2.5247   53.6647   21.9387 C   0  0  0  0  0  0  0  0  0  0  0  0
    5.8171   60.0370   22.2685 C   0  0  0  0  0  0  0  0  0  0  0  0
    4.7300   60.2266   19.9794 C   0  0  0  0  0  0  0  0  0  0  0  0
    5.9330   59.4778   23.5396 C   0  0  0  0  0  0  0  0  0  0  0  0
    3.8141   53.1947   22.1813 C   0  0  0  0  0  0  0  0  0  0  0  0
    1.3921   51.8054   22.9687 C   0  0  0  0  0  0  0  0  0  0  0  0
    3.9184   58.6123   21.7874 C   0  0  0  0  0  0  0  0  0  0  0  0
    4.7472   55.1007   21.0114 C   0  0  0  0  0  0  0  0  0  0  0  0
    4.8274   59.6134   21.3605 C   0  0  0  0  0  0  0  0  0  0  0  0
    5.0452   58.4920   23.9481 C   0  0  0  0  0  0  0  0  0  0  0  0
    3.2718   56.8940   20.0078 C   0  0  0  0  0  0  0  0  0  0  0  0
    3.4608   55.5905   20.7578 C   0  0  0  0  0  0  0  0  0  0  0  0
    1.6639   50.6615   25.2382 C   0  0  0  0  0  0  0  0  0  0  0  0
    2.8156   58.0629   20.9005 C   0  0  0  0  0  0  0  0  0  0  0  0
    3.8950   61.4995   19.9770 C   0  0  0  0  0  0  0  0  0  0  0  0
    4.9211   53.9114   21.7186 C   0  0  0  0  0  0  0  0  0  0  0  0
    1.3552   53.0792   22.3350 O   0  0  0  0  0  0  0  0  0  0  0  0
    0.1212   51.1453   22.6829 N   0  0  0  0  0  0  0  0  0  0  0  0
    4.0434   58.0666   23.0807 C   0  0  0  0  0  0  0  0  0  0  0  0
    1.5618   51.9804   24.4860 C   0  0  0  0  0  0  0  0  0  0  0  0
    6.7302   61.0149   21.9821 O   0  0  0  0  0  0  0  0  0  0  0  0
    2.3580   54.8612   21.2331 C   0  0  0  0  0  0  0  0  0  0  0  0
  1 12  1  0
  2  6  4  0
  2 18  1  0
  2 23  4  0
  3  5  4  0
  3 10  4  0
  3 22  1  0
  4 10  1  0
  4 16  1  0
  5 11  4  0
  6 17  4  0
  7 18  1  0
  7 19  1  0
  7 21  1  0
  8 10  4  0
  8 15  1  0
  8 20  4  0
  9 13  4  0
  9 17  4  0
 11 20  4  0
 12 13  1  0
 12 15  1  0
 13 23  4  0
 14 21  1  0
M  END
$$$$

     RDKit          3D

 25 27  0  0  0  0  0  0  0  0999 V2000
    0.8033   52.8235   22.1694 C   0  0  0  0  0  0  0  0  0  0  0  0
    3.8771   55.9449   21.5935 C   0  0  0  0  0  0  0  0  0  0  0  0
    6.2208   59.5550   21.4051 C   0  0  0  0  0  0  0  0  0  0  0  0
    4.0049   59.0420   20.6352 C   0  0  0  0  0  0  0  0  0  0  0  0
    2.1604   52.7603   22.7121 N   0  0  0  0  0  0  0  0  0  0  0  0
    4.3819   56.4794   20.2370 C   0  0  0  0  0  0  0  0  0  0  0  0
    3.5118   61.5931   22.8546 N   0  0  0  0  0  0  0  0  0  0  0  0
    2.4343   60.7747   19.5826 C   0  0  0  0  0  0  0  0  0  0  0  0
    4.7236   61.2082   22.1365 C   0  0  0  0  0  0  0  0  0  0  0  0
    5.0067   57.8884   20.2374 C   0  0  0  0  0  0  0  0  0  0  0  0
   -0.0150   53.7014   22.9221 O   0  0  0  0  0  0  0  0  0  0  0  0
    3.0775   50.7471   23.7699 C   0  0  0  0  0  0  0  0  0  0  0  0
    5.3352   55.5818   19.6656 O   0  0  0  0  0  0  0  0  0  0  0  0
    4.3619   53.9470   22.9424 C   0  0  0  0  0  0  0  0  0  0  0  0
    6.9460   60.1711   22.5861 C   0  0  0  0  0  0  0  0  0  0  0  0
    0.1008   51.4711   22.0393 C   0  0  0  0  0  0  0  0  0  0  0  0
    6.2737   58.0734   21.1129 C   0  0  0  0  0  0  0  0  0  0  0  0
    2.2910   52.0339   23.9826 C   0  0  0  0  0  0  0  0  0  0  0  0
    2.8162   54.8439   21.4087 C   0  0  0  0  0  0  0  0  0  0  0  0
    4.9282   55.2996   22.5140 C   0  0  0  0  0  0  0  0  0  0  0  0
    6.0294   61.3515   22.9880 C   0  0  0  0  0  0  0  0  0  0  0  0
    4.7532   59.7345   21.7767 C   0  0  0  0  0  0  0  0  0  0  0  0
    6.6729   62.5910   22.7230 O   0  0  0  0  0  0  0  0  0  0  0  0
    3.6696   59.9039   19.4048 C   0  0  0  0  0  0  0  0  0  0  0  0
    2.8465   54.0633   22.7299 C   0  0  0  0  0  0  0  0  0  0  0  0
  1  5  1  0
  1 11  1  0
  1 16  1  0
  2  6  1  0
  2 19  1  0
  2 20  1  0
  3 15  1  0
  3 17  1  0
  3 22  1  0
  4 10  1  0
  4 22  1  0
  4 24  1  0
  5 18  1  0
  5 25  1  0
  6 10  1  0
  6 13  1  0
  7  9  1  0
  8 24  1  0
  9 21  1  0
  9 22  1  0
 10 17  1  0
 12 18  1  0
 14 20  1  0
 14 25  1  0
 15 21  1  0
 19 25  1  0
 21 23  1  0
M  END
$$$$

     RDKit          3D

 23 24  0  0  0  0  0  0  0  0999 V2000
    0.6670   53.0399   21.6948 C   0  0  0  0  0  0  0  0  0  0  0  0
    6.5541   59.6767   22.3992 C   0  0  0  0  0  0  0  0  0  0  0  0
    5.4675   55.8492   20.1363 O   0  0  0  0  0  0  0  0  0  0  0  0
    4.1366   53.9839   23.0857 C   0  0  0  0  0  0  0  0  0  0  0  0
    2.0333   51.9205   23.5720 C   0  0  0  0  0  0  0  0  0  0  0  0
    3.8492   56.0816   21.8841 C   0  0  0  0  0  0  0  0  0  0  0  0
    2.7633   54.1089   22.5789 N   0  0  0  0  0  0  0  0  0  0  0  0
   -0.1014   51.8545   21.3746 N   0  0  0  0  0  0  0  0  0  0  0  0
    6.3028   58.1783   22.1486 C   0  0  0  0  0  0  0  0  0  0  0  0
    2.1119   52.7908   22.2816 C   0  0  0  0  0  0  0  0  0  0  0  0
    5.3221   58.1078   20.9748 C   0  0  0  0  0  0  0  0  0  0  0  0
    3.4237   59.3308   23.4323 C   0  0  0  0  0  0  0  0  0  0  0  0
    6.4590   60.6168   20.1985 O   0  0  0  0  0  0  0  0  0  0  0  0
    4.7445   55.3701   22.9026 C   0  0  0  0  0  0  0  0  0  0  0  0
    5.2713   61.8418   21.8523 C   0  0  0  0  0  0  0  0  0  0  0  0
    4.5312   62.4686   20.7997 O   0  0  0  0  0  0  0  0  0  0  0  0
    4.5321   59.4423   21.0420 C   0  0  0  0  0  0  0  0  0  0  0  0
    3.1748   50.9173   23.7033 C   0  0  0  0  0  0  0  0  0  0  0  0
    3.2724   59.4906   21.9260 C   0  0  0  0  0  0  0  0  0  0  0  0
    2.9366   54.9531   21.3829 C   0  0  0  0  0  0  0  0  0  0  0  0
    4.5541   56.7935   20.7192 C   0  0  0  0  0  0  0  0  0  0  0  0
   -0.1025   53.7953   22.6102 O   0  0  0  0  0  0  0  0  0  0  0  0
    5.6711   60.4333   21.3987 C   0  0  0  0  0  0  0  0  0  0  0  0
  1  8  1  0
  1 10  1  0
  1 22  1  0
  2  9  1  0
  2 23  1  0
  3 21  1  0
  4  7  1  0
  4 14  1  0
  5 10  1  0
  5 18  1  0
  6 14  1  0
  6 20  1  0
  6 21  1  0
  7 10  1  0
  7 20  1  0
  9 11  1  0
 11 17  1  0
 11 21  1  0
 12 19  1  0
 13 23  1  0
 15 16  1  0
 15 23  1  0
 17 19  1  0
 17 23  1  0
M  END
$$$$
