=
 OpenBabel12172413023D

 28 30  0  0  1  0  0  0  0  0999 V2000
    4.1070   56.6290   19.4190 N   0  0  0  0  0  4  0  0  0  0  0  0
    3.0020   55.6100   21.1990 C   0  0  2  0  0  3  0  0  0  0  0  0
    1.2830   54.2970   20.2050 C   0  0  1  0  0  3  0  0  0  0  0  0
    3.3350   55.4340   19.7270 C   0  0  1  0  0  3  0  0  0  0  0  0
    4.3850   55.8920   21.7350 C   0  0  2  0  0  3  0  0  0  0  0  0
    4.4220   56.2870   23.2010 C   0  0  0  0  0  1  0  0  0  0  0  0
    4.9040   56.9110   20.6760 C   0  0  2  0  0  3  0  0  0  0  0  0
    2.1960   54.3580   21.4690 C   0  0  1  0  0  3  0  0  0  0  0  0
    1.9730   55.1590   19.1170 C   0  0  0  0  0  2  0  0  0  0  0  0
    3.4880   57.4110   19.2030 H   0  0  0  0  0  0  0  0  0  0  0  0
    4.7060   56.5000   18.6030 H   0  0  0  0  0  0  0  0  0  0  0  0
    5.7690   59.2610   20.6760 N   0  0  0  0  0  0  0  0  0  0  0  0
    4.7240   58.4170   21.0110 C   0  0  0  0  0  0  0  0  0  0  0  0
    3.6950   58.8650   21.5220 O   0  0  0  0  0  0  0  0  0  0  0  0
    7.8480   60.1800   20.0780 C   0  0  0  0  0  2  0  0  0  0  0  0
    6.7960   61.2910   20.0450 C   0  0  1  0  0  3  0  0  0  0  0  0
    5.6650   60.6950   20.8850 C   0  0  0  0  0  2  0  0  0  0  0  0
    7.0070   58.9130   20.0030 C   0  0  0  0  0  2  0  0  0  0  0  0
    7.2780   62.6400   20.5800 C   0  0  0  0  0  2  0  0  0  0  0  0
    7.4880   63.6650   19.4670 C   0  0  0  0  0  2  0  0  0  0  0  0
    8.0650   63.0210   18.2940 N   0  0  0  0  0  4  0  0  0  0  0  0
    7.3740   62.9980   17.5430 H   0  0  0  0  0  0  0  0  0  0  0  0
    8.3420   62.0690   18.5290 H   0  0  0  0  0  0  0  0  0  0  0  0
    8.8830   63.5460   17.9850 H   0  0  0  0  0  0  0  0  0  0  0  0
    3.0350   53.2060   21.5330 O   0  0  0  0  0  0  0  0  0  0  0  0
    3.4690   53.1710   22.3990 H   0  0  0  0  0  0  0  0  0  0  0  0
    1.1370   52.9400   19.7850 O   0  0  0  0  0  0  0  0  0  0  0  0
    0.2440   52.8050   19.4330 H   0  0  0  0  0  0  0  0  0  0  0  0
  1  4  1  0  0  0  0
  1  7  1  0  0  0  0
  2  8  1  0  0  0  0
  2  5  1  0  0  0  0
  3  8  1  0  0  0  0
  4  2  1  0  0  0  0
  5  6  1  0  0  0  0
  7 13  1  0  0  0  0
  7  5  1  0  0  0  0
  8 25  1  0  0  0  0
  9  4  1  0  0  0  0
  9  3  1  0  0  0  0
 10  1  1  0  0  0  0
 11  1  1  0  0  0  0
 12 17  1  0  0  0  0
 12 13  1  0  0  0  0
 13 14  2  0  0  0  0
 16 15  1  0  0  0  0
 16 19  1  0  0  0  0
 16 17  1  0  0  0  0
 18 15  1  0  0  0  0
 18 12  1  0  0  0  0
 20 19  1  0  0  0  0
 21 23  1  0  0  0  0
 21 20  1  0  0  0  0
 22 21  1  0  0  0  0
 24 21  1  0  0  0  0
 25 26  1  0  0  0  0
 27  3  1  0  0  0  0
 28 27  1  0  0  0  0
M  END
>  <MODEL>
1

>  <REMARK>
 VINA RESULT:      -6.3      0.000      0.000
  Name = 
  7 active torsions:
  status: ('A' for Active; 'I' for Inactive)
    1  A    between atoms: N_2  and  C_15
    2  A    between atoms: C_4  and  C_18
    3  A    between atoms: C_6  and  O_12
    4  A    between atoms: O_10  and  C_19
    5  A    between atoms: C_11  and  C_21
    6  A    between atoms: C_15  and  C_21
    7  A    between atoms: C_16  and  C_17
                            x       y       z     vdW  Elec       q    Type
                         _______ _______ _______ _____ _____    ______ ____

>  <TORSDO>
F 6

$$$$
=
 OpenBabel12172413033D

 28 29  0  0  1  0  0  0  0  0999 V2000
    4.9550   57.4570   21.5990 C   0  0  1  0  0  3  0  0  0  0  0  0
    4.4060   56.9010   25.3540 C   0  0  0  0  0  0  0  0  0  0  0  0
    3.3340   56.0100   25.3370 C   0  0  0  0  0  3  0  0  0  0  0  0
    3.3030   56.0660   22.9150 C   0  0  0  0  0  3  0  0  0  0  0  0
    4.3780   56.9610   22.9100 C   0  0  0  0  0  0  0  0  0  0  0  0
    2.7850   55.5940   24.1220 C   0  0  0  0  0  3  0  0  0  0  0  0
    4.9220   57.3660   24.1400 C   0  0  0  0  0  3  0  0  0  0  0  0
    5.0460   57.3860   26.4600 O   0  0  0  0  0  0  0  0  0  0  0  0
    6.1930   58.2130   26.2950 C   0  0  2  0  0  3  0  0  0  0  0  0
    7.3230   57.5060   26.8920 N   0  0  0  0  0  4  0  0  0  0  0  0
    7.6560   58.0230   27.7060 H   0  0  0  0  0  0  0  0  0  0  0  0
    8.0750   57.4280   26.2080 H   0  0  0  0  0  0  0  0  0  0  0  0
    7.0260   56.5740   27.1800 H   0  0  0  0  0  0  0  0  0  0  0  0
    5.0870   60.5160   26.2360 C   0  0  0  0  0  1  0  0  0  0  0  0
    5.9770   59.5560   27.0110 C   0  0  0  0  0  2  0  0  0  0  0  0
    4.6210   56.5340   20.5530 O   0  0  0  0  0  0  0  0  0  0  0  0
    5.4320   56.2450   20.1070 H   0  0  0  0  0  0  0  0  0  0  0  0
    4.4620   58.8590   21.1950 C   0  0  0  0  0  2  0  0  0  0  0  0
    6.5830   61.9910   20.5150 C   0  0  0  0  0  0  0  0  0  0  0  0
    7.7350   61.4100   19.9850 C   0  0  0  0  0  3  0  0  0  0  0  0
    5.5820   59.8040   20.8040 C   0  0  0  0  0  0  0  0  0  0  0  0
    5.4800   61.2140   20.9200 C   0  0  0  0  0  0  0  0  0  0  0  0
    7.8240   60.0300   19.8670 C   0  0  0  0  0  3  0  0  0  0  0  0
    6.7590   59.2340   20.2780 C   0  0  0  0  0  3  0  0  0  0  0  0
    4.2360   61.8700   21.4800 C   0  0  0  0  0  2  0  0  0  0  0  0
    4.3410   62.1070   22.9800 C   0  0  0  0  0  1  0  0  0  0  0  0
    6.6150   63.3560   20.6060 O   0  0  0  0  0  0  0  0  0  0  0  0
    6.4080   63.8810   19.8580 H   0  0  0  0  0  0  0  0  0  0  0  0
  1 18  1  6  0  0  0
  1  5  1  0  0  0  0
  2  8  1  0  0  0  0
  3  2  1  0  0  0  0
  4  6  1  0  0  0  0
  5  4  2  0  0  0  0
  5  7  1  0  0  0  0
  6  3  2  0  0  0  0
  7  2  2  0  0  0  0
  9  8  1  0  0  0  0
  9 10  1  0  0  0  0
  9 15  1  1  0  0  0
 10 13  1  0  0  0  0
 10 11  1  0  0  0  0
 12 10  1  0  0  0  0
 14 15  1  0  0  0  0
 16  1  1  0  0  0  0
 17 16  1  0  0  0  0
 19 27  1  0  0  0  0
 19 22  1  0  0  0  0
 20 19  2  0  0  0  0
 21 22  2  0  0  0  0
 21 18  1  0  0  0  0
 22 25  1  0  0  0  0
 23 20  1  0  0  0  0
 23 24  2  0  0  0  0
 24 21  1  0  0  0  0
 25 26  1  0  0  0  0
 28 27  1  0  0  0  0
M  END
>  <MODEL>
1

>  <REMARK>
 VINA RESULT:      -7.0      0.000      0.000
  Name = 
  12 active torsions:
  status: ('A' for Active; 'I' for Inactive)
    1  A    between atoms: O_1  and  C_12
    2  A    between atoms: C_2  and  O_18
    3  A    between atoms: C_3  and  O_22
    4  A    between atoms: C_4  and  C_10
    5  A    between atoms: C_4  and  C_16
    6  A    between atoms: C_7  and  O_18
    7  A    between atoms: C_7  and  N_19
    8  A    between atoms: C_7  and  C_21
    9  A    between atoms: C_8  and  C_15
   10  A    between atoms: C_12  and  C_13
   11  A    between atoms: C_12  and  C_15
   12  A    between atoms: C_14  and  C_21
                            x       y       z     vdW  Elec       q    Type
                         _______ _______ _______ _____ _____    ______ ____

>  <TORSDO>
F 10

$$$$
=
 OpenBabel12172413043D

 32 34  0  0  1  0  0  0  0  0999 V2000
    5.0770   59.2800   21.5000 C   0  0  2  0  0  3  0  0  0  0  0  0
    3.8910   55.7020   21.4660 C   0  0  1  0  0  3  0  0  0  0  0  0
    4.4850   57.3210   23.1370 C   0  0  1  0  0  3  0  0  0  0  0  0
    2.9210   55.1140   23.5210 C   0  0  1  0  0  3  0  0  0  0  0  0
    5.0460   57.7560   21.7260 C   0  0  1  0  0  3  0  0  0  0  0  0
    2.7460   54.7980   21.0540 C   0  0  0  0  0  2  0  0  0  0  0  0
    4.2800   56.9230   20.6640 C   0  0  0  0  0  2  0  0  0  0  0  0
    2.1870   54.2950   22.4080 C   0  0  1  0  0  3  0  0  0  0  0  0
    3.3750   56.3400   22.7510 C   0  0  2  0  0  3  0  0  0  0  0  0
    2.0720   55.4420   24.6620 N   0  0  0  0  0  4  0  0  0  0  0  0
    1.7300   56.3990   24.5680 H   0  0  0  0  0  0  0  0  0  0  0  0
    2.6110   55.3560   25.5230 H   0  0  0  0  0  0  0  0  0  0  0  0
    1.2790   54.8010   24.6920 H   0  0  0  0  0  0  0  0  0  0  0  0
    5.6290   57.3240   25.4330 C   0  0  0  0  0  1  0  0  0  0  0  0
    5.6210   56.7690   24.0150 C   0  0  0  0  0  2  0  0  0  0  0  0
    2.4310   52.9030   22.5580 O   0  0  0  0  0  0  0  0  0  0  0  0
    2.9870   52.5920   21.8270 H   0  0  0  0  0  0  0  0  0  0  0  0
    6.4120   59.8800   21.0120 C   0  0  1  0  0  3  0  0  0  0  0  0
    7.0290   61.5360   19.3020 C   0  0  0  0  0  2  0  0  0  0  0  0
    6.8860   59.2210   19.7040 C   0  0  0  0  0  2  0  0  0  0  0  0
    6.4140   61.3860   20.6930 C   0  0  0  0  0  2  0  0  0  0  0  0
    7.8390   60.2510   19.0830 C   0  0  1  0  0  3  0  0  0  0  0  0
    8.1910   60.0190   17.6720 N   0  0  0  0  0  4  0  0  0  0  0  0
    9.2060   59.9190   17.6400 H   0  0  0  0  0  0  0  0  0  0  0  0
    7.9360   61.1750   16.8110 C   0  0  1  0  0  3  0  0  0  0  0  0
    9.1930   61.8720   16.2870 C   0  0  0  0  0  1  0  0  0  0  0  0
    7.1050   60.8320   15.7170 O   0  0  0  0  0  0  0  0  0  0  0  0
    6.1780   60.8290   16.0020 H   0  0  0  0  0  0  0  0  0  0  0  0
    8.6920   58.1140   16.2110 C   0  0  0  0  0  1  0  0  0  0  0  0
    7.6810   58.7380   17.1640 C   0  0  0  0  0  2  0  0  0  0  0  0
    4.6550   59.9070   22.7110 O   0  0  0  0  0  0  0  0  0  0  0  0
    4.6040   59.2450   23.4180 H   0  0  0  0  0  0  0  0  0  0  0  0
  1 31  1  1  0  0  0
  2  7  1  6  0  0  0
  2  9  1  0  0  0  0
  3 15  1  1  0  0  0
  4 10  1  1  0  0  0
  5  1  1  6  0  0  0
  5  3  1  0  0  0  0
  6  2  1  0  0  0  0
  6  8  1  0  0  0  0
  7  5  1  0  0  0  0
  8 16  1  1  0  0  0
  8  4  1  0  0  0  0
  9  3  1  0  0  0  0
  9  4  1  0  0  0  0
 10 13  1  0  0  0  0
 10 12  1  0  0  0  0
 11 10  1  0  0  0  0
 15 14  1  0  0  0  0
 17 16  1  0  0  0  0
 18  1  1  0  0  0  0
 19 21  1  0  0  0  0
 20 18  1  0  0  0  0
 21 18  1  0  0  0  0
 22 19  1  0  0  0  0
 22 20  1  0  0  0  0
 23 22  1  0  0  0  0
 24 23  1  0  0  0  0
 25 23  1  0  0  0  0
 26 25  1  0  0  0  0
 27 28  1  0  0  0  0
 27 25  1  0  0  0  0
 29 30  1  0  0  0  0
 30 23  1  0  0  0  0
 31 32  1  0  0  0  0
M  END
>  <MODEL>
1

>  <REMARK>
 VINA RESULT:      -6.8      0.000      0.000
  Name = 
  13 active torsions:
  status: ('A' for Active; 'I' for Inactive)
    1  A    between atoms: C_1  and  N_5
    2  A    between atoms: C_1  and  O_11
    3  A    between atoms: C_1  and  C_16
    4  A    between atoms: C_2  and  C_6
    5  A    between atoms: C_4  and  C_24
    6  A    between atoms: N_5  and  C_18
    7  A    between atoms: N_5  and  C_25
    8  A    between atoms: C_6  and  C_10
    9  A    between atoms: C_6  and  O_13
   10  A    between atoms: N_7  and  C_9
   11  A    between atoms: C_8  and  C_24
   12  A    between atoms: C_12  and  C_18
   13  A    between atoms: C_21  and  O_23
                            x       y       z     vdW  Elec       q    Type
                         _______ _______ _______ _____ _____    ______ ____

>  <TORSDO>
F 10

$$$$
=
 OpenBabel12172413043D

 31 32  0  0  1  0  0  0  0  0999 V2000
    2.9090   54.8780   22.8710 C   0  0  0  0  0  2  0  0  0  0  0  0
    3.7130   57.1120   22.3320 C   0  0  2  0  0  3  0  0  0  0  0  0
    2.8560   55.1140   21.4210 N   0  0  0  0  0  4  0  0  0  0  0  0
    3.1720   56.2520   23.4780 C   0  0  0  0  0  2  0  0  0  0  0  0
    3.9450   56.0860   21.2140 C   0  0  0  0  0  2  0  0  0  0  0  0
    1.9470   55.4590   21.1110 H   0  0  0  0  0  0  0  0  0  0  0  0
    3.0140   53.8670   20.6050 C   0  0  1  0  0  3  0  0  0  0  0  0
    2.8590   52.6040   21.5050 C   0  0  0  0  0  2  0  0  0  0  0  0
    3.5150   51.3550   20.9240 C   0  0  0  0  0  1  0  0  0  0  0  0
    1.9380   53.8560   19.4490 C   0  0  1  0  0  3  0  0  0  0  0  0
    0.6140   54.3160   19.8100 N   0  0  0  0  0  4  0  0  0  0  0  0
    0.4930   55.2820   19.5050 H   0  0  0  0  0  0  0  0  0  0  0  0
    0.4990   54.2640   20.8230 H   0  0  0  0  0  0  0  0  0  0  0  0
   -0.0870   53.7270   19.3590 H   0  0  0  0  0  0  0  0  0  0  0  0
    2.3760   54.6640   18.3740 O   0  0  0  0  0  0  0  0  0  0  0  0
    3.3430   54.7290   18.3910 H   0  0  0  0  0  0  0  0  0  0  0  0
    4.9830   57.9290   22.6180 C   0  0  1  0  0  3  0  0  0  0  0  0
    4.1160   61.5040   21.3520 C   0  0  0  0  0  2  0  0  0  0  0  0
    3.6940   60.1340   21.9170 C   0  0  0  0  0  2  0  0  0  0  0  0
    4.9870   59.4530   22.3730 C   0  0  2  0  0  3  0  0  0  0  0  0
    6.0940   60.0700   21.4780 C   0  0  2  0  0  3  0  0  0  0  0  0
    5.6460   61.5540   21.4480 C   0  0  2  0  0  0  0  0  0  0  0  0
    7.8180   59.1320   19.7170 C   0  0  0  0  0  1  0  0  0  0  0  0
    6.3750   59.4060   20.1170 C   0  0  0  0  0  2  0  0  0  0  0  0
    5.9670   62.1160   22.7440 O   0  0  0  0  0  0  0  0  0  0  0  0
    6.9100   62.3400   22.7740 H   0  0  0  0  0  0  0  0  0  0  0  0
    6.3110   62.4770   20.4200 C   0  0  0  0  0  2  0  0  0  0  0  0
    7.6970   62.6060   20.7500 O   0  0  0  0  0  0  0  0  0  0  0  0
    7.8690   62.1760   21.6020 H   0  0  0  0  0  0  0  0  0  0  0  0
    5.3350   57.6970   23.9930 O   0  0  0  0  0  0  0  0  0  0  0  0
    5.8410   56.8720   24.0620 H   0  0  0  0  0  0  0  0  0  0  0  0
  1  4  1  0  0  0  0
  2 17  1  1  0  0  0
  2  4  1  0  0  0  0
  3  1  1  0  0  0  0
  5  3  1  0  0  0  0
  5  2  1  0  0  0  0
  6  3  1  0  0  0  0
  7  3  1  0  0  0  0
  7  8  1  1  0  0  0
  9  8  1  0  0  0  0
 10 15  1  6  0  0  0
 10 11  1  0  0  0  0
 10  7  1  0  0  0  0
 11 13  1  0  0  0  0
 12 11  1  0  0  0  0
 14 11  1  0  0  0  0
 15 16  1  0  0  0  0
 17 30  1  1  0  0  0
 18 22  1  0  0  0  0
 18 19  1  0  0  0  0
 19 20  1  0  0  0  0
 20 17  1  6  0  0  0
 21 24  1  6  0  0  0
 21 20  1  0  0  0  0
 22 27  1  6  0  0  0
 22 21  1  0  0  0  0
 22 25  1  0  0  0  0
 23 24  1  0  0  0  0
 25 26  1  0  0  0  0
 27 28  1  0  0  0  0
 28 29  1  0  0  0  0
 30 31  1  0  0  0  0
M  END
>  <MODEL>
1

>  <REMARK>
 VINA RESULT:      -5.8      0.000      0.000
  Name = 
  14 active torsions:
  status: ('A' for Active; 'I' for Inactive)
    1  A    between atoms: C_1  and  N_8
    2  A    between atoms: C_1  and  C_10
    3  A    between atoms: C_1  and  O_22
    4  A    between atoms: O_3  and  C_21
    5  A    between atoms: C_5  and  C_10
    6  A    between atoms: C_5  and  C_18
    7  A    between atoms: C_6  and  C_21
    8  A    between atoms: N_7  and  C_10
    9  A    between atoms: C_11  and  C_21
   10  A    between atoms: C_12  and  C_19
   11  A    between atoms: O_13  and  C_23
   12  A    between atoms: C_15  and  O_16
   13  A    between atoms: C_15  and  C_23
   14  A    between atoms: C_17  and  C_19
                            x       y       z     vdW  Elec       q    Type
                         _______ _______ _______ _____ _____    ______ ____

>  <TORSDO>
F 12

$$$$
