5d3h_ligand
     RDKit          3D

 30 31  0  0  0  0  0  0  0  0999 V2000
    2.7217   55.4725   23.3971 C   0  0  0  0  0  0  0  0  0  0  0  0
    2.3375   54.6019   22.3613 C   0  0  0  0  0  0  0  0  0  0  0  0
    5.3839   57.8608   21.8636 C   0  0  0  0  0  0  0  0  0  0  0  0
    6.6511   59.7810   24.2098 C   0  0  0  0  0  0  0  0  0  0  0  0
    5.2469   59.7978   23.5964 C   0  0  0  0  0  0  0  0  0  0  0  0
    5.1507   59.3595   22.1126 C   0  0  0  0  0  0  0  0  0  0  0  0
    6.1380   60.0256   21.1634 C   0  0  0  0  0  0  0  0  0  0  0  0
    6.1377   59.0694   19.9696 C   0  0  0  0  0  0  0  0  0  0  0  0
    4.1099   57.0715   22.0018 C   0  0  0  0  0  0  0  0  0  0  0  0
    3.2842   51.7087   20.7394 C   0  0  0  0  0  0  0  0  0  0  0  0
    4.1274   50.5676   20.1737 C   0  0  0  0  0  0  0  0  0  0  0  0
    5.7404   61.4406   20.7941 C   0  0  0  0  0  0  0  0  0  0  0  0
    4.6594   61.6555   20.2648 O   0  0  0  0  0  0  0  0  0  0  0  0
    6.6610   62.5976   21.0690 C   0  0  0  0  0  0  0  0  0  0  0  0
    0.9912   54.5106   24.8085 C   0  0  0  0  0  0  0  0  0  0  0  0
    0.6050   53.6633   23.7685 C   0  0  0  0  0  0  0  0  0  0  0  0
    2.0504   55.4111   24.6316 C   0  0  0  0  0  0  0  0  0  0  0  0
    1.2836   53.6970   22.5435 C   0  0  0  0  0  0  0  0  0  0  0  0
    7.4269   59.1686   19.1408 C   0  0  0  0  0  0  0  0  0  0  0  0
    2.6254   50.6101   23.4204 C   0  0  0  0  0  0  0  0  0  0  0  0
    1.8012   50.2791   22.1682 C   0  0  0  0  0  0  0  0  0  0  0  0
    5.9218   57.7140   20.5011 N   0  0  0  0  0  0  0  0  0  0  0  0
    3.8254   56.3791   23.2279 N   0  0  0  0  0  0  0  0  0  0  0  0
    1.9158   51.2571   21.0590 N   0  0  0  0  0  0  0  0  0  0  0  0
    3.2642   57.0870   21.0657 O   0  0  0  0  0  0  0  0  0  0  0  0
   -0.5738   52.0966   21.4824 O   0  0  0  0  0  0  0  0  0  0  0  0
    0.7920   53.3947   19.9517 O   0  0  0  0  0  0  0  0  0  0  0  0
    2.4320   56.2536   25.6751 O   0  0  0  0  0  0  0  0  0  0  0  0
    0.8177   52.6103   21.2341 S   0  0  0  0  0  6  0  0  0  0  0  0
    6.0665   63.4796   21.9808 O   0  0  0  0  0  0  0  0  0  0  0  0
  2  1  4  0
  1 17  4  0
  1 23  1  0
 18  2  4  0
  3  6  1  0
  9  3  1  0
  3 22  1  0
  5  4  1  0
  6  5  1  0
  6  7  1  0
  8  7  1  0
  7 12  1  0
  8 19  1  0
 22  8  1  0
 23  9  1  0
  9 25  2  0
 10 11  1  0
 24 10  1  0
 12 13  2  0
 12 14  1  0
 14 30  1  0
 16 15  4  0
 15 17  4  0
 18 16  4  0
 17 28  1  0
 29 18  1  0
 21 20  1  0
 24 21  1  0
 24 29  1  0
 29 26  2  0
 29 27  2  0
M  END
>  <zinc_id>  (1) 


$$$$
