
     RDKit          3D

 28 29  0  0  0  0  0  0  0  0999 V2000
    4.3648   56.7461   21.7045 C   0  0  0  0  0  0  0  0  0  0  0  0
    6.5424   59.3808   20.3256 C   0  0  0  0  0  0  0  0  0  0  0  0
    0.8516   52.5325   21.5400 S   0  0  0  0  0  0  0  0  0  0  0  0
    3.7975   56.5258   22.8380 N   0  0  0  0  0  0  0  0  0  0  0  0
    4.8641   59.4006   21.9730 C   0  0  0  0  0  0  0  0  0  0  0  0
    1.4902   54.5567   24.8347 C   0  0  0  0  0  0  0  0  0  0  0  0
    2.4205   55.5121   24.4189 C   0  0  0  0  0  0  0  0  0  0  0  0
    1.5330   50.1528   22.2825 C   0  0  0  0  0  0  0  0  0  0  0  0
    2.3754   54.6712   22.2235 C   0  0  0  0  0  0  0  0  0  0  0  0
    0.7328   53.1085   20.2290 O   0  0  0  0  0  0  0  0  0  0  0  0
    6.0790   58.1187   20.4270 N   0  0  0  0  0  0  0  0  0  0  0  0
    3.0200   51.4359   20.6660 C   0  0  0  0  0  0  0  0  0  0  0  0
    4.4808   59.6671   24.4397 C   0  0  0  0  0  0  0  0  0  0  0  0
   -0.4823   52.0514   21.8913 O   0  0  0  0  0  0  0  0  0  0  0  0
    1.0055   53.6221   23.9052 C   0  0  0  0  0  0  0  0  0  0  0  0
    1.8180   51.3457   21.4814 N   0  0  0  0  0  0  0  0  0  0  0  0
    5.1150   58.0312   21.3490 C   0  0  0  0  0  0  0  0  0  0  0  0
    5.7774   60.1999   21.3110 C   0  0  0  0  0  0  0  0  0  0  0  0
    6.9981   62.3606   20.6664 C   0  0  0  0  0  0  0  0  0  0  0  0
    3.2032   50.2699   19.7305 C   0  0  0  0  0  0  0  0  0  0  0  0
    7.6391   59.7218   19.3519 C   0  0  0  0  0  0  0  0  0  0  0  0
    2.8647   55.5248   23.0911 C   0  0  0  0  0  0  0  0  0  0  0  0
    2.4839   50.1779   23.4452 C   0  0  0  0  0  0  0  0  0  0  0  0
    3.8611   59.7561   23.0443 C   0  0  0  0  0  0  0  0  0  0  0  0
    1.4353   53.6419   22.5656 C   0  0  0  0  0  0  0  0  0  0  0  0
    5.2840   62.2813   22.3471 O   0  0  0  0  0  0  0  0  0  0  0  0
    2.8811   56.4352   25.3115 O   0  0  0  0  0  0  0  0  0  0  0  0
    5.9434   61.6704   21.5249 C   0  0  0  0  0  0  0  0  0  0  0  0
  1  4  2  3
  1 17  1  0
  2 11  1  0
  2 18  1  0
  2 21  1  0
  3 10  2  0
  3 14  2  0
  3 16  1  0
  3 25  1  0
  4 22  1  0
  5 17  1  0
  5 18  1  0
  5 24  1  0
  6  7  2  0
  6 15  1  0
  7 22  1  0
  7 27  1  0
  8 16  1  0
  8 23  1  0
  9 22  2  0
  9 25  1  0
 11 17  1  0
 12 16  1  0
 12 20  1  0
 13 24  1  0
 15 25  2  0
 18 28  1  0
 19 28  1  0
 26 28  2  0
M  END
$$$$

     RDKit          3D

 28 29  0  0  0  0  0  0  0  0999 V2000
    5.0978   57.9814   21.3632 C   0  0  0  0  0  0  0  0  0  0  0  0
    4.2843   56.7717   21.5662 C   0  0  0  0  0  0  0  0  0  0  0  0
    5.9205   61.7138   21.5874 C   0  0  0  0  0  0  0  0  0  0  0  0
    4.8682   59.3645   21.9652 C   0  0  0  0  0  0  0  0  0  0  0  0
    0.8521   52.5207   21.5350 S   0  0  0  0  0  0  0  0  0  0  0  0
    2.9017   56.4504   25.3192 O   0  0  0  0  0  0  0  0  0  0  0  0
    2.3693   54.5935   22.1892 C   0  0  0  0  0  0  0  0  0  0  0  0
    6.5600   59.3851   20.2994 C   0  0  0  0  0  0  0  0  0  0  0  0
    1.8154   51.3420   21.4830 N   0  0  0  0  0  0  0  0  0  0  0  0
    2.8766   55.5577   23.0973 C   0  0  0  0  0  0  0  0  0  0  0  0
    4.4748   59.6651   24.4465 C   0  0  0  0  0  0  0  0  0  0  0  0
    4.3062   56.0132   20.8130 O   0  0  0  0  0  0  0  0  0  0  0  0
    1.4957   54.5634   24.8397 C   0  0  0  0  0  0  0  0  0  0  0  0
    3.0081   51.4502   20.6738 C   0  0  0  0  0  0  0  0  0  0  0  0
    1.5267   50.1482   22.2812 C   0  0  0  0  0  0  0  0  0  0  0  0
    0.7316   53.1004   20.2354 O   0  0  0  0  0  0  0  0  0  0  0  0
    1.0125   53.6347   23.9214 C   0  0  0  0  0  0  0  0  0  0  0  0
    2.4209   55.5061   24.4356 C   0  0  0  0  0  0  0  0  0  0  0  0
    6.0766   58.1367   20.4250 N   0  0  0  0  0  0  0  0  0  0  0  0
    6.9751   62.3875   20.7121 C   0  0  0  0  0  0  0  0  0  0  0  0
    3.1974   50.2676   19.7496 C   0  0  0  0  0  0  0  0  0  0  0  0
    3.8653   59.7605   23.0367 C   0  0  0  0  0  0  0  0  0  0  0  0
    5.7914   60.2155   21.2928 C   0  0  0  0  0  0  0  0  0  0  0  0
    7.6256   59.7130   19.3683 C   0  0  0  0  0  0  0  0  0  0  0  0
    3.8127   56.5310   22.8444 N   0  0  0  0  0  0  0  0  0  0  0  0
    1.4150   53.6255   22.5898 C   0  0  0  0  0  0  0  0  0  0  0  0
    2.4916   50.1737   23.4494 C   0  0  0  0  0  0  0  0  0  0  0  0
    6.9394   63.7352   20.6878 O   0  0  0  0  0  0  0  0  0  0  0  0
  1  2  1  0
  1  4  1  0
  1 19  1  0
  2 12  2  0
  2 25  1  0
  3 20  1  0
  3 23  1  0
  4 22  1  0
  4 23  1  0
  5  9  1  0
  5 16  1  0
  6 18  1  0
  7 10  2  0
  7 26  1  0
  8 19  1  0
  8 23  1  0
  8 24  1  0
  9 14  1  0
  9 15  1  0
 10 18  1  0
 10 25  1  0
 11 22  1  0
 13 17  1  0
 13 18  2  0
 14 21  1  0
 15 27  1  0
 16 26  1  0
 17 26  2  0
 20 28  1  0
M  END
$$$$

     RDKit          3D

 30 31  0  0  0  0  0  0  0  0999 V2000
    4.3877   56.7595   21.6788 C   0  0  0  0  0  0  0  0  0  0  0  0
    2.3613   54.5980   22.1830 C   0  0  0  0  0  0  0  0  0  0  0  0
    5.1124   58.0163   21.3504 C   0  0  0  0  0  0  0  0  0  0  0  0
    7.6362   59.7183   19.3635 C   0  0  0  0  0  0  0  0  0  0  0  0
    6.9742   62.3320   20.7134 C   0  0  0  0  0  0  0  0  0  0  0  0
    6.5417   59.3819   20.3278 C   0  0  0  0  0  0  0  0  0  0  0  0
    1.8094   51.3453   21.4885 N   0  0  0  0  0  0  0  0  0  0  0  0
    1.4432   53.6312   22.5738 C   0  0  0  0  0  0  0  0  0  0  0  0
    1.5024   54.5637   24.8448 C   0  0  0  0  0  0  0  0  0  0  0  0
    6.0112   61.8258   21.5818 C   0  0  0  0  0  0  0  0  0  0  0  0
    5.7770   60.2132   21.3020 C   0  0  0  0  0  0  0  0  0  0  0  0
    4.4800   59.6612   24.4442 C   0  0  0  0  0  0  0  0  0  0  0  0
    2.8565   55.5434   23.1204 C   0  0  0  0  0  0  0  0  0  0  0  0
    3.2122   50.2802   19.7432 C   0  0  0  0  0  0  0  0  0  0  0  0
    2.9174   56.4439   25.2192 O   0  0  0  0  0  0  0  0  0  0  0  0
    0.8560   52.5246   21.5406 S   0  0  0  0  0  0  0  0  0  0  0  0
    1.0239   53.6214   23.9429 C   0  0  0  0  0  0  0  0  0  0  0  0
    0.7331   53.1151   20.2341 O   0  0  0  0  0  0  0  0  0  0  0  0
    2.4876   50.1724   23.4526 C   0  0  0  0  0  0  0  0  0  0  0  0
    3.0214   51.4542   20.6726 C   0  0  0  0  0  0  0  0  0  0  0  0
    6.0711   58.1259   20.4269 N   0  0  0  0  0  0  0  0  0  0  0  0
    4.8664   59.3732   21.9618 C   0  0  0  0  0  0  0  0  0  0  0  0
    6.9297   63.7741   20.6899 O   0  0  0  0  0  0  0  0  0  0  0  0
   -0.4804   52.0450   21.8820 O   0  0  0  0  0  0  0  0  0  0  0  0
    3.7858   56.5196   22.8489 N   0  0  0  0  0  0  0  0  0  0  0  0
    4.2976   55.9569   20.7517 O   0  0  0  0  0  0  0  0  0  0  0  0
    3.8611   59.7554   23.0431 C   0  0  0  0  0  0  0  0  0  0  0  0
    1.5368   50.1618   22.2845 C   0  0  0  0  0  0  0  0  0  0  0  0
    2.4442   55.5615   24.4826 C   0  0  0  0  0  0  0  0  0  0  0  0
    5.3495   62.2640   22.2845 O   0  0  0  0  0  0  0  0  0  0  0  0
  1  3  1  0
  1 25  1  0
  1 26  2  0
  2  8  1  0
  2 13  1  0
  3 21  1  0
  3 22  1  0
  4  6  1  0
  5 10  1  0
  5 23  1  0
  6 11  1  0
  6 21  1  0
  7 16  1  0
  7 20  1  0
  7 28  1  0
  8 16  1  0
  8 17  1  0
  9 17  1  0
  9 29  1  0
 10 11  1  0
 10 30  2  0
 11 22  1  0
 12 27  1  0
 13 25  1  0
 13 29  1  0
 14 20  1  0
 15 29  2  0
 16 18  2  0
 16 24  2  0
 19 28  1  0
 22 27  1  0
M  END
$$$$

     RDKit          3D

 29 30  0  0  0  0  0  0  0  0999 V2000
    1.4221   53.6152   22.6210 C   0  0  0  0  0  0  0  0  0  0  0  0
    6.0446   58.1150   20.4436 N   0  0  0  0  0  0  0  0  0  0  0  0
    0.8425   52.5381   21.5255 S   0  0  0  0  0  0  0  0  0  0  0  0
    4.3789   56.6024   21.6174 C   0  0  0  0  0  0  0  0  0  0  0  0
    2.4101   55.6927   24.5887 C   0  0  0  0  0  0  0  0  0  0  0  0
    6.5481   59.3642   20.3266 C   0  0  0  0  0  0  0  0  0  0  0  0
    5.9521   61.6748   21.5244 C   0  0  0  0  0  0  0  0  0  0  0  0
    1.5508   50.1547   22.2795 C   0  0  0  0  0  0  0  0  0  0  0  0
    5.1013   57.9824   21.3722 C   0  0  0  0  0  0  0  0  0  0  0  0
    3.8625   59.7480   23.0488 C   0  0  0  0  0  0  0  0  0  0  0  0
    1.0737   53.6962   24.0237 C   0  0  0  0  0  0  0  0  0  0  0  0
    6.9383   63.7728   20.6970 O   0  0  0  0  0  0  0  0  0  0  0  0
    3.8122   56.5331   22.8206 N   0  0  0  0  0  0  0  0  0  0  0  0
    3.0127   51.4500   20.6747 C   0  0  0  0  0  0  0  0  0  0  0  0
    0.7449   53.1151   20.2306 O   0  0  0  0  0  0  0  0  0  0  0  0
    5.7705   60.2131   21.3043 C   0  0  0  0  0  0  0  0  0  0  0  0
    2.4858   50.1931   23.4488 C   0  0  0  0  0  0  0  0  0  0  0  0
    5.2830   62.2982   22.3578 O   0  0  0  0  0  0  0  0  0  0  0  0
    3.1981   50.2709   19.7465 C   0  0  0  0  0  0  0  0  0  0  0  0
    4.4772   59.6709   24.4456 C   0  0  0  0  0  0  0  0  0  0  0  0
   -0.4681   52.0511   21.8915 O   0  0  0  0  0  0  0  0  0  0  0  0
    2.3474   54.5880   22.1662 C   0  0  0  0  0  0  0  0  0  0  0  0
    1.8054   51.3508   21.4852 N   0  0  0  0  0  0  0  0  0  0  0  0
    6.9957   62.3499   20.6876 C   0  0  0  0  0  0  0  0  0  0  0  0
    7.6321   59.7177   19.3447 C   0  0  0  0  0  0  0  0  0  0  0  0
    4.8743   59.3689   21.9566 C   0  0  0  0  0  0  0  0  0  0  0  0
    4.2971   56.0515   20.8323 O   0  0  0  0  0  0  0  0  0  0  0  0
    1.5180   54.5503   24.8025 C   0  0  0  0  0  0  0  0  0  0  0  0
    2.7135   55.5750   23.3459 C   0  0  0  0  0  0  0  0  0  0  0  0
  1  3  1  0
  1 11  2  0
  1 22  1  0
  2  6  1  0
  2  9  1  0
  3 15  2  0
  3 21  2  0
  3 23  1  0
  4  9  1  0
  4 13  1  0
  4 27  2  0
  5 28  2  0
  5 29  1  0
  6 16  1  0
  6 25  1  0
  7 16  1  0
  7 18  2  0
  7 24  1  0
  8 17  1  0
  8 23  1  0
  9 26  1  0
 10 20  1  0
 10 26  1  0
 11 28  1  0
 12 24  1  0
 13 29  1  0
 14 19  1  0
 14 23  1  0
 16 26  1  0
 22 29  2  0
M  END
$$$$

     RDKit          3D

 30 31  0  0  0  0  0  0  0  0999 V2000
    2.8818   55.5579   23.0960 C   0  0  0  0  0  0  0  0  0  0  0  0
    0.8539   52.5123   21.5371 S   0  0  0  0  0  0  0  0  0  0  0  0
    4.3919   56.7713   21.6099 C   0  0  0  0  0  0  0  0  0  0  0  0
    2.4066   55.5085   24.4263 C   0  0  0  0  0  0  0  0  0  0  0  0
    6.0619   58.1297   20.4319 N   0  0  0  0  0  0  0  0  0  0  0  0
    1.4906   54.5759   24.8460 C   0  0  0  0  0  0  0  0  0  0  0  0
    2.4861   50.1879   23.4435 C   0  0  0  0  0  0  0  0  0  0  0  0
    5.7667   60.1927   21.3116 C   0  0  0  0  0  0  0  0  0  0  0  0
   -0.4849   52.0588   21.8808 O   0  0  0  0  0  0  0  0  0  0  0  0
    3.8616   59.7510   23.0486 C   0  0  0  0  0  0  0  0  0  0  0  0
    5.9577   61.6764   21.5253 C   0  0  0  0  0  0  0  0  0  0  0  0
    4.4794   59.6690   24.4415 C   0  0  0  0  0  0  0  0  0  0  0  0
    4.2985   55.9826   20.7609 O   0  0  0  0  0  0  0  0  0  0  0  0
    1.4382   53.6337   22.5475 C   0  0  0  0  0  0  0  0  0  0  0  0
    5.1177   58.0361   21.3677 C   0  0  0  0  0  0  0  0  0  0  0  0
    3.7931   56.5318   22.8273 N   0  0  0  0  0  0  0  0  0  0  0  0
    6.5494   59.3809   20.3328 C   0  0  0  0  0  0  0  0  0  0  0  0
    1.8170   51.3422   21.4682 N   0  0  0  0  0  0  0  0  0  0  0  0
    6.9318   63.7672   20.6938 O   0  0  0  0  0  0  0  0  0  0  0  0
    0.7297   53.1038   20.2296 O   0  0  0  0  0  0  0  0  0  0  0  0
    1.5216   50.1634   22.2869 C   0  0  0  0  0  0  0  0  0  0  0  0
    4.8573   59.3860   21.9667 C   0  0  0  0  0  0  0  0  0  0  0  0
    3.2042   50.2692   19.7290 C   0  0  0  0  0  0  0  0  0  0  0  0
    2.8895   56.4469   25.3141 O   0  0  0  0  0  0  0  0  0  0  0  0
    3.0292   51.4545   20.6594 C   0  0  0  0  0  0  0  0  0  0  0  0
    2.3716   54.6181   22.1772 C   0  0  0  0  0  0  0  0  0  0  0  0
    6.9906   62.3517   20.6782 C   0  0  0  0  0  0  0  0  0  0  0  0
    7.6319   59.7099   19.3529 C   0  0  0  0  0  0  0  0  0  0  0  0
    1.0169   53.6798   23.9513 C   0  0  0  0  0  0  0  0  0  0  0  0
    5.2845   62.2974   22.3458 O   0  0  0  0  0  0  0  0  0  0  0  0
  1  4  2  0
  1 16  1  0
  1 26  1  0
  2  9  2  0
  2 14  1  0
  2 18  1  0
  2 20  2  0
  3 13  2  0
  3 15  1  0
  3 16  1  0
  4  6  1  0
  4 24  1  0
  5 15  1  0
  5 17  1  0
  6 29  2  0
  7 21  1  0
  8 11  1  0
  8 17  1  0
  8 22  1  0
 10 12  1  0
 10 22  1  0
 11 27  1  0
 11 30  2  0
 14 26  2  0
 14 29  1  0
 15 22  1  0
 17 28  1  0
 18 21  1  0
 18 25  1  0
 19 27  1  0
 23 25  1  0
M  END
$$$$

     RDKit          3D

 30 31  0  0  0  0  0  0  0  0999 V2000
    2.8876   55.5807   23.1263 C   0  0  0  0  0  0  0  0  0  0  0  0
    4.3616   56.7515   21.6380 C   0  0  0  0  0  0  0  0  0  0  0  0
    6.9319   63.7759   20.6865 O   0  0  0  0  0  0  0  0  0  0  0  0
    1.4311   53.6256   22.5789 C   0  0  0  0  0  0  0  0  0  0  0  0
    7.6512   59.7177   19.3277 C   0  0  0  0  0  0  0  0  0  0  0  0
    6.0643   58.1436   20.4385 N   0  0  0  0  0  0  0  0  0  0  0  0
    1.4998   54.5550   24.8375 C   0  0  0  0  0  0  0  0  0  0  0  0
    6.9865   62.3658   20.6902 C   0  0  0  0  0  0  0  0  0  0  0  0
    4.8237   59.2327   21.9134 C   0  0  0  0  0  0  0  0  0  0  0  0
    5.9455   61.6466   21.5172 C   0  0  0  0  0  0  0  0  0  0  0  0
    1.8052   51.3402   21.4902 N   0  0  0  0  0  0  0  0  0  0  0  0
    3.0228   51.4506   20.6684 C   0  0  0  0  0  0  0  0  0  0  0  0
    4.2858   55.9775   20.7618 O   0  0  0  0  0  0  0  0  0  0  0  0
    0.8542   52.5270   21.5316 S   0  0  0  0  0  0  0  0  0  0  0  0
    1.5456   50.1472   22.2829 C   0  0  0  0  0  0  0  0  0  0  0  0
    4.4841   59.6672   24.4463 C   0  0  0  0  0  0  0  0  0  0  0  0
    0.7422   53.1113   20.2368 O   0  0  0  0  0  0  0  0  0  0  0  0
    6.5615   59.4084   20.3229 C   0  0  0  0  0  0  0  0  0  0  0  0
    2.8743   56.4422   25.3122 O   0  0  0  0  0  0  0  0  0  0  0  0
    3.1971   50.2765   19.7412 C   0  0  0  0  0  0  0  0  0  0  0  0
   -0.4816   52.0429   21.8914 O   0  0  0  0  0  0  0  0  0  0  0  0
    3.8662   59.7570   23.0199 C   0  0  0  0  0  0  0  0  0  0  0  0
    5.2911   62.2990   22.3356 O   0  0  0  0  0  0  0  0  0  0  0  0
    3.8089   56.5216   22.8278 N   0  0  0  0  0  0  0  0  0  0  0  0
    2.4859   50.1747   23.4567 C   0  0  0  0  0  0  0  0  0  0  0  0
    5.7040   60.1324   21.3626 C   0  0  0  0  0  0  0  0  0  0  0  0
    2.4215   55.5136   24.4269 C   0  0  0  0  0  0  0  0  0  0  0  0
    2.3684   54.6251   22.1934 C   0  0  0  0  0  0  0  0  0  0  0  0
    1.0186   53.6293   23.9182 C   0  0  0  0  0  0  0  0  0  0  0  0
    5.0953   58.0620   21.3690 C   0  0  0  0  0  0  0  0  0  0  0  0
  1 24  1  0
  1 27  2  0
  1 28  1  0
  2 13  2  0
  2 24  1  0
  2 30  1  0
  3  8  1  0
  4 14  1  0
  4 28  2  0
  4 29  1  0
  5 18  1  0
  6 18  1  0
  6 30  1  0
  7 27  1  0
  7 29  2  0
  8 10  1  0
  9 22  1  0
  9 26  1  0
  9 30  1  0
 10 23  2  0
 10 26  1  0
 11 12  1  0
 11 14  1  0
 11 15  1  0
 12 20  1  0
 14 17  2  0
 14 21  2  0
 15 25  1  0
 16 22  1  0
 18 26  1  0
 19 27  1  0
M  END
$$$$

     RDKit          3D

 30 31  0  0  0  0  0  0  0  0999 V2000
    2.4047   55.5318   24.4502 C   0  0  0  0  0  0  0  0  0  0  0  0
    4.3818   56.7720   21.6625 C   0  0  0  0  0  0  0  0  0  0  0  0
    5.9019   61.6555   21.6314 C   0  0  0  0  0  0  0  0  0  0  0  0
    0.7384   53.1264   20.2253 O   0  0  0  0  0  0  0  0  0  0  0  0
    1.5442   50.1487   22.2814 C   0  0  0  0  0  0  0  0  0  0  0  0
    4.8863   59.3590   21.9559 C   0  0  0  0  0  0  0  0  0  0  0  0
    5.9829   58.2005   20.4804 N   0  0  0  0  0  0  0  0  0  0  0  0
    6.9644   62.3361   20.6903 C   0  0  0  0  0  0  0  0  0  0  0  0
    3.8041   56.5443   22.8372 N   0  0  0  0  0  0  0  0  0  0  0  0
    1.4620   53.6580   22.5897 C   0  0  0  0  0  0  0  0  0  0  0  0
    1.8107   51.3487   21.4965 N   0  0  0  0  0  0  0  0  0  0  0  0
    1.5070   54.5533   24.8477 C   0  0  0  0  0  0  0  0  0  0  0  0
   -0.4831   52.0441   21.8888 O   0  0  0  0  0  0  0  0  0  0  0  0
    5.1533   58.0378   21.3119 C   0  0  0  0  0  0  0  0  0  0  0  0
    6.5243   59.3623   20.3294 C   0  0  0  0  0  0  0  0  0  0  0  0
    4.4798   59.6647   24.4342 C   0  0  0  0  0  0  0  0  0  0  0  0
    2.8892   56.4531   25.3240 O   0  0  0  0  0  0  0  0  0  0  0  0
    3.2162   50.2662   19.7257 C   0  0  0  0  0  0  0  0  0  0  0  0
    2.3306   54.5628   22.1972 C   0  0  0  0  0  0  0  0  0  0  0  0
    5.7739   60.2283   21.3121 C   0  0  0  0  0  0  0  0  0  0  0  0
    0.8551   52.5360   21.5198 S   0  0  0  0  0  0  0  0  0  0  0  0
    3.8720   59.7502   23.0371 C   0  0  0  0  0  0  0  0  0  0  0  0
    7.6350   59.7060   19.3569 C   0  0  0  0  0  0  0  0  0  0  0  0
    1.0087   53.6203   23.9124 C   0  0  0  0  0  0  0  0  0  0  0  0
    2.4899   50.1765   23.4491 C   0  0  0  0  0  0  0  0  0  0  0  0
    6.9417   63.7497   20.6778 O   0  0  0  0  0  0  0  0  0  0  0  0
    5.3217   62.2571   22.3079 O   0  0  0  0  0  0  0  0  0  0  0  0
    3.0170   51.4434   20.6708 C   0  0  0  0  0  0  0  0  0  0  0  0
    4.2856   55.9633   20.7514 O   0  0  0  0  0  0  0  0  0  0  0  0
    2.8760   55.5594   23.0875 C   0  0  0  0  0  0  0  0  0  0  0  0
  1 12  2  0
  1 17  1  0
  1 30  1  0
  2  9  1  0
  2 14  1  0
  2 29  2  0
  3  8  1  0
  3 20  1  0
  3 27  2  0
  4 21  2  0
  5 11  1  0
  5 25  1  0
  6 14  1  0
  6 20  1  0
  6 22  1  0
  7 14  1  0
  7 15  1  0
  8 26  1  0
  9 30  1  0
 10 19  1  0
 10 21  1  0
 10 24  2  0
 11 21  1  0
 11 28  1  0
 12 24  1  0
 13 21  2  0
 15 20  1  0
 15 23  1  0
 16 22  1  0
 18 28  1  0
 19 30  2  0
M  END
$$$$

     RDKit          3D

 30 31  0  0  0  0  0  0  0  0999 V2000
    5.9677   61.6632   21.5140 C   0  0  0  0  0  0  0  0  0  0  0  0
    4.3806   56.7740   21.6763 C   0  0  0  0  0  0  0  0  0  0  0  0
    2.4385   55.5431   24.4223 C   0  0  0  0  0  0  0  0  0  0  0  0
    4.9228   59.4229   21.8835 C   0  0  0  0  0  0  0  0  0  0  0  0
    2.8630   55.5048   23.1002 C   0  0  0  0  0  0  0  0  0  0  0  0
    1.8149   51.3396   21.4826 N   0  0  0  0  0  0  0  0  0  0  0  0
    6.1641   58.2939   20.3628 N   0  0  0  0  0  0  0  0  0  0  0  0
    0.9999   53.6217   23.9177 C   0  0  0  0  0  0  0  0  0  0  0  0
    3.2022   50.2673   19.7349 C   0  0  0  0  0  0  0  0  0  0  0  0
    4.4741   59.6606   24.4322 C   0  0  0  0  0  0  0  0  0  0  0  0
    0.8515   52.5256   21.5295 S   0  0  0  0  0  0  0  0  0  0  0  0
    5.1294   58.0552   21.3261 C   0  0  0  0  0  0  0  0  0  0  0  0
    3.7758   56.5439   22.8411 N   0  0  0  0  0  0  0  0  0  0  0  0
    5.3095   62.2872   22.3282 O   0  0  0  0  0  0  0  0  0  0  0  0
   -0.4825   52.0502   21.8880 O   0  0  0  0  0  0  0  0  0  0  0  0
    6.9933   62.3634   20.6770 C   0  0  0  0  0  0  0  0  0  0  0  0
    1.4300   53.6270   22.5874 C   0  0  0  0  0  0  0  0  0  0  0  0
    3.0215   51.4494   20.6670 C   0  0  0  0  0  0  0  0  0  0  0  0
    5.7453   60.1897   21.3207 C   0  0  0  0  0  0  0  0  0  0  0  0
    7.6316   59.7136   19.3541 C   0  0  0  0  0  0  0  0  0  0  0  0
    2.4834   50.1948   23.4470 C   0  0  0  0  0  0  0  0  0  0  0  0
    4.2904   55.9708   20.7563 O   0  0  0  0  0  0  0  0  0  0  0  0
    2.8592   56.4330   25.2940 O   0  0  0  0  0  0  0  0  0  0  0  0
    1.4891   54.5711   24.8325 C   0  0  0  0  0  0  0  0  0  0  0  0
    3.8664   59.7487   23.0389 C   0  0  0  0  0  0  0  0  0  0  0  0
    0.7388   53.1143   20.2317 O   0  0  0  0  0  0  0  0  0  0  0  0
    1.5387   50.1462   22.2785 C   0  0  0  0  0  0  0  0  0  0  0  0
    6.5166   59.3197   20.3336 C   0  0  0  0  0  0  0  0  0  0  0  0
    2.3855   54.6134   22.1679 C   0  0  0  0  0  0  0  0  0  0  0  0
    6.9213   63.7748   20.6960 O   0  0  0  0  0  0  0  0  0  0  0  0
  1 14  2  0
  1 16  1  0
  1 19  1  0
  2 12  1  0
  2 13  1  0
  2 22  2  0
  3  5  2  0
  3 23  1  0
  3 24  1  0
  4 12  1  0
  4 19  1  0
  4 25  1  0
  5 13  1  0
  5 29  1  0
  6 11  1  0
  6 18  1  0
  6 27  1  0
  7 12  1  0
  7 28  1  0
  8 17  1  0
  8 24  2  0
  9 18  1  0
 10 25  1  0
 11 15  2  0
 11 17  1  0
 11 26  2  0
 16 30  1  0
 17 29  2  0
 19 28  1  0
 20 28  1  0
 21 27  1  0
M  END
$$$$

     RDKit          3D

 29 30  0  0  0  0  0  0  0  0999 V2000
    1.8104   51.3539   21.4800 N   0  0  0  0  0  0  0  0  0  0  0  0
    5.2965   62.3092   22.3509 O   0  0  0  0  0  0  0  0  0  0  0  0
    5.0927   58.0022   21.3751 C   0  0  0  0  0  0  0  0  0  0  0  0
    5.7718   60.2162   21.3005 C   0  0  0  0  0  0  0  0  0  0  0  0
    4.3217   56.0001   20.8566 O   0  0  0  0  0  0  0  0  0  0  0  0
    1.4397   53.6369   22.5753 C   0  0  0  0  0  0  0  0  0  0  0  0
    3.8700   59.7575   23.0449 C   0  0  0  0  0  0  0  0  0  0  0  0
    6.9935   62.3688   20.6813 C   0  0  0  0  0  0  0  0  0  0  0  0
    4.4833   59.6627   24.4356 C   0  0  0  0  0  0  0  0  0  0  0  0
    6.5449   59.3739   20.3358 C   0  0  0  0  0  0  0  0  0  0  0  0
    2.5017   55.8329   24.5594 C   0  0  0  0  0  0  0  0  0  0  0  0
    1.0029   53.6229   23.9170 C   0  0  0  0  0  0  0  0  0  0  0  0
    3.8430   56.5268   22.8158 N   0  0  0  0  0  0  0  0  0  0  0  0
    0.8459   52.5183   21.5340 S   0  0  0  0  0  0  0  0  0  0  0  0
    7.6361   59.7069   19.3510 C   0  0  0  0  0  0  0  0  0  0  0  0
    2.3664   54.6159   22.1898 C   0  0  0  0  0  0  0  0  0  0  0  0
    2.4834   50.1820   23.4504 C   0  0  0  0  0  0  0  0  0  0  0  0
    3.1999   50.2765   19.7303 C   0  0  0  0  0  0  0  0  0  0  0  0
    6.9226   63.7586   20.6899 O   0  0  0  0  0  0  0  0  0  0  0  0
    5.9490   61.6819   21.5287 C   0  0  0  0  0  0  0  0  0  0  0  0
   -0.4753   52.0450   21.8840 O   0  0  0  0  0  0  0  0  0  0  0  0
    1.6035   54.6787   24.8296 C   0  0  0  0  0  0  0  0  0  0  0  0
    1.5327   50.1495   22.2748 C   0  0  0  0  0  0  0  0  0  0  0  0
    0.7336   53.1068   20.2407 O   0  0  0  0  0  0  0  0  0  0  0  0
    3.0235   51.4369   20.6630 C   0  0  0  0  0  0  0  0  0  0  0  0
    4.3381   56.7011   21.6244 C   0  0  0  0  0  0  0  0  0  0  0  0
    4.8779   59.3735   21.9645 C   0  0  0  0  0  0  0  0  0  0  0  0
    6.0571   58.1334   20.4232 N   0  0  0  0  0  0  0  0  0  0  0  0
    2.8259   55.6810   23.2305 C   0  0  0  0  0  0  0  0  0  0  0  0
  1 14  1  0
  1 23  1  0
  1 25  1  0
  2 20  2  0
  3 26  1  0
  3 27  1  0
  3 28  1  0
  4 10  1  0
  4 20  1  0
  4 27  1  0
  5 26  2  0
  6 12  2  0
  6 14  1  0
  6 16  1  0
  7  9  1  0
  7 27  1  0
  8 19  1  0
  8 20  1  0
 10 15  1  0
 10 28  1  0
 11 22  2  0
 11 29  1  0
 12 22  1  0
 13 26  1  0
 13 29  1  0
 14 21  2  0
 14 24  2  0
 16 29  2  0
 17 23  1  0
 18 25  1  0
M  END
$$$$

     RDKit          3D

 30 31  0  0  0  0  0  0  0  0999 V2000
    6.0660   58.1312   20.4176 N   0  0  0  0  0  0  0  0  0  0  0  0
    1.5370   50.1512   22.2832 C   0  0  0  0  0  0  0  0  0  0  0  0
    3.7680   56.4814   22.8020 N   0  0  0  0  0  0  0  0  0  0  0  0
    5.2965   62.3035   22.3427 O   0  0  0  0  0  0  0  0  0  0  0  0
    1.5062   54.5534   24.8375 C   0  0  0  0  0  0  0  0  0  0  0  0
    2.3706   54.5971   22.1815 C   0  0  0  0  0  0  0  0  0  0  0  0
    3.8632   59.7494   23.0393 C   0  0  0  0  0  0  0  0  0  0  0  0
    3.0245   51.4520   20.6656 C   0  0  0  0  0  0  0  0  0  0  0  0
    5.7890   60.1847   21.3287 C   0  0  0  0  0  0  0  0  0  0  0  0
    0.8686   52.5179   21.5449 S   0  0  0  0  0  0  0  0  0  0  0  0
    4.2945   55.9912   20.7602 O   0  0  0  0  0  0  0  0  0  0  0  0
    2.8698   56.4495   25.3026 O   0  0  0  0  0  0  0  0  0  0  0  0
    5.0973   58.0355   21.3646 C   0  0  0  0  0  0  0  0  0  0  0  0
    2.4859   50.1865   23.4472 C   0  0  0  0  0  0  0  0  0  0  0  0
    6.9376   63.7641   20.6883 O   0  0  0  0  0  0  0  0  0  0  0  0
    6.5434   59.3758   20.3340 C   0  0  0  0  0  0  0  0  0  0  0  0
    2.4194   55.5118   24.4283 C   0  0  0  0  0  0  0  0  0  0  0  0
    4.4762   59.6675   24.4359 C   0  0  0  0  0  0  0  0  0  0  0  0
    4.8762   59.3968   21.9529 C   0  0  0  0  0  0  0  0  0  0  0  0
    1.4287   53.6358   22.5863 C   0  0  0  0  0  0  0  0  0  0  0  0
    1.8004   51.3508   21.4970 N   0  0  0  0  0  0  0  0  0  0  0  0
    7.6333   59.7263   19.3504 C   0  0  0  0  0  0  0  0  0  0  0  0
    6.9681   62.3459   20.7043 C   0  0  0  0  0  0  0  0  0  0  0  0
    3.2056   50.2730   19.7469 C   0  0  0  0  0  0  0  0  0  0  0  0
   -0.4738   52.0533   21.8909 O   0  0  0  0  0  0  0  0  0  0  0  0
    2.9269   55.5927   23.1004 C   0  0  0  0  0  0  0  0  0  0  0  0
    0.7351   53.1047   20.2467 O   0  0  0  0  0  0  0  0  0  0  0  0
    1.0059   53.6373   23.9162 C   0  0  0  0  0  0  0  0  0  0  0  0
    4.3725   56.7492   21.6907 C   0  0  0  0  0  0  0  0  0  0  0  0
    5.9553   61.6763   21.5237 C   0  0  0  0  0  0  0  0  0  0  0  0
  1 13  1  0
  1 16  1  0
  2 14  1  0
  2 21  1  0
  3 26  1  0
  3 29  1  0
  4 30  2  0
  5 17  2  0
  5 28  1  0
  6 20  1  0
  6 26  2  0
  7 18  1  0
  7 19  1  0
  8 21  1  0
  8 24  1  0
  9 16  1  0
  9 19  1  0
  9 30  1  0
 10 20  1  0
 10 21  1  0
 10 25  2  0
 10 27  2  0
 11 29  2  0
 12 17  1  0
 13 19  1  0
 13 29  1  0
 15 23  1  0
 16 22  1  0
 17 26  1  0
 20 28  2  0
 23 30  1  0
M  END
$$$$
