MODEL 1
REMARK VINA RESULT:      -7.0      0.000      0.000
REMARK  Name = 
REMARK  12 active torsions:
REMARK  status: ('A' for Active; 'I' for Inactive)
REMARK    1  A    between atoms: O_1  and  C_12
REMARK    2  A    between atoms: C_2  and  O_18
REMARK    3  A    between atoms: C_3  and  O_22
REMARK    4  A    between atoms: C_4  and  C_10
REMARK    5  A    between atoms: C_4  and  C_16
REMARK    6  A    between atoms: C_7  and  O_18
REMARK    7  A    between atoms: C_7  and  N_19
REMARK    8  A    between atoms: C_7  and  C_21
REMARK    9  A    between atoms: C_8  and  C_15
REMARK   10  A    between atoms: C_12  and  C_13
REMARK   11  A    between atoms: C_12  and  C_15
REMARK   12  A    between atoms: C_14  and  C_21
REMARK                            x       y       z     vdW  Elec       q    Type
REMARK                         _______ _______ _______ _____ _____    ______ ____
ROOT
ATOM      1  C   UNL     1       4.961  57.387  21.588  0.00  0.00    +0.000 C 
ENDROOT
BRANCH   1   5
ATOM      2  C   UNL     1       4.426  56.861  25.350  0.00  0.00    +0.000 A 
ATOM      3  C   UNL     1       3.324  56.008  25.346  0.00  0.00    +0.000 A 
ATOM      4  C   UNL     1       3.273  56.059  22.924  0.00  0.00    +0.000 A 
ATOM      5  C   UNL     1       4.379  56.915  22.906  0.00  0.00    +0.000 A 
ATOM      6  C   UNL     1       2.750  55.609  24.137  0.00  0.00    +0.000 A 
ATOM      7  C   UNL     1       4.948  57.304  24.130  0.00  0.00    +0.000 A 
BRANCH   2   8
ATOM      8  O   UNL     1       5.094  57.326  26.448  0.00  0.00    +0.000 OA
BRANCH   8   9
ATOM      9  C   UNL     1       6.169  58.243  26.275  0.00  0.00    +0.000 C 
BRANCH   9  10
ATOM     10  N   UNL     1       7.378  57.588  26.767  0.00  0.00    +0.000 N 
ATOM     11  H   UNL     1       7.439  57.703  27.779  0.00  0.00    +0.000 HD
ATOM     12  H   UNL     1       8.196  58.008  26.327  0.00  0.00    +0.000 HD
ATOM     13  H   UNL     1       7.342  56.594  26.540  0.00  0.00    +0.000 HD
ENDBRANCH   9  10
BRANCH   9  15
ATOM     14  C   UNL     1       5.286  60.642  26.255  0.00  0.00    +0.000 C 
ATOM     15  C   UNL     1       5.900  59.522  27.083  0.00  0.00    +0.000 C 
ENDBRANCH   9  15
ENDBRANCH   8   9
ENDBRANCH   2   8
ENDBRANCH   1   5
BRANCH   1  16
ATOM     16  O   UNL     1       4.645  56.436  20.562  0.00  0.00    +0.000 OA
ATOM     17  H   UNL     1       5.446  55.946  20.319  0.00  0.00    +0.000 HD
ENDBRANCH   1  16
BRANCH   1  18
ATOM     18  C   UNL     1       4.456  58.774  21.148  0.00  0.00    +0.000 C 
BRANCH  18  21
ATOM     19  C   UNL     1       6.556  61.932  20.529  0.00  0.00    +0.000 A 
ATOM     20  C   UNL     1       7.717  61.369  20.000  0.00  0.00    +0.000 A 
ATOM     21  C   UNL     1       5.571  59.733  20.780  0.00  0.00    +0.000 A 
ATOM     22  C   UNL     1       5.457  61.140  20.914  0.00  0.00    +0.000 A 
ATOM     23  C   UNL     1       7.818  59.991  19.863  0.00  0.00    +0.000 A 
ATOM     24  C   UNL     1       6.757  59.180  20.254  0.00  0.00    +0.000 A 
BRANCH  22  25
ATOM     25  C   UNL     1       4.202  61.778  21.474  0.00  0.00    +0.000 C 
ATOM     26  C   UNL     1       4.322  62.061  22.964  0.00  0.00    +0.000 C 
ENDBRANCH  22  25
BRANCH  19  27
ATOM     27  O   UNL     1       6.576  63.296  20.639  0.00  0.00    +0.000 OA
ATOM     28  H   UNL     1       5.930  63.811  20.197  0.00  0.00    +0.000 HD
ENDBRANCH  19  27
ENDBRANCH  18  21
ENDBRANCH   1  18
TORSDOF 10
ENDMDL

MODEL 2
REMARK VINA RESULT:      -6.5      0.000      0.000
REMARK  Name = 
REMARK  13 active torsions:
REMARK  status: ('A' for Active; 'I' for Inactive)
REMARK    1  A    between atoms: C_1  and  N_5
REMARK    2  A    between atoms: C_1  and  O_11
REMARK    3  A    between atoms: C_1  and  C_16
REMARK    4  A    between atoms: C_2  and  C_6
REMARK    5  A    between atoms: C_4  and  C_24
REMARK    6  A    between atoms: N_5  and  C_18
REMARK    7  A    between atoms: N_5  and  C_25
REMARK    8  A    between atoms: C_6  and  C_10
REMARK    9  A    between atoms: C_6  and  O_13
REMARK   10  A    between atoms: N_7  and  C_9
REMARK   11  A    between atoms: C_8  and  C_24
REMARK   12  A    between atoms: C_12  and  C_18
REMARK   13  A    between atoms: C_21  and  O_23
REMARK                            x       y       z     vdW  Elec       q    Type
REMARK                         _______ _______ _______ _____ _____    ______ ____
ROOT
ATOM      1  C   UNL     1       4.588  58.647  23.411  0.00  0.00    +0.000 C 
ENDROOT
BRANCH   1   5
ATOM      2  C   UNL     1       6.201  59.318  20.071  0.00  0.00    +0.000 C 
ATOM      3  C   UNL     1       5.181  60.630  21.804  0.00  0.00    +0.000 C 
ATOM      4  C   UNL     1       6.935  61.542  19.918  0.00  0.00    +0.000 C 
ATOM      5  C   UNL     1       4.776  59.111  21.953  0.00  0.00    +0.000 C 
ATOM      6  C   UNL     1       7.496  59.195  19.292  0.00  0.00    +0.000 C 
ATOM      7  C   UNL     1       5.781  58.294  21.100  0.00  0.00    +0.000 C 
ATOM      8  C   UNL     1       7.915  60.669  19.067  0.00  0.00    +0.000 C 
ATOM      9  C   UNL     1       6.447  60.541  20.948  0.00  0.00    +0.000 C 
BRANCH   4  10
ATOM     10  N   UNL     1       7.567  62.713  20.520  0.00  0.00    +0.000 N 
ATOM     11  H   UNL     1       7.056  62.981  21.362  0.00  0.00    +0.000 HD
ATOM     12  H   UNL     1       7.555  63.485  19.855  0.00  0.00    +0.000 HD
ATOM     13  H   UNL     1       8.532  62.490  20.766  0.00  0.00    +0.000 HD
ENDBRANCH   4  10
BRANCH   3  15
ATOM     14  C   UNL     1       3.794  62.786  21.897  0.00  0.00    +0.000 C 
ATOM     15  C   UNL     1       4.008  61.439  21.221  0.00  0.00    +0.000 C 
ENDBRANCH   3  15
BRANCH   8  16
ATOM     16  O   UNL     1       7.827  61.004  17.689  0.00  0.00    +0.000 OA
ATOM     17  H   UNL     1       6.945  61.361  17.499  0.00  0.00    +0.000 HD
ENDBRANCH   8  16
ENDBRANCH   1   5
BRANCH   1  18
ATOM     18  C   UNL     1       5.336  59.449  24.496  0.00  0.00    +0.000 C 
ATOM     19  C   UNL     1       5.291  59.472  26.954  0.00  0.00    +0.000 C 
ATOM     20  C   UNL     1       4.469  60.593  25.053  0.00  0.00    +0.000 C 
ATOM     21  C   UNL     1       5.776  58.670  25.748  0.00  0.00    +0.000 C 
ATOM     22  C   UNL     1       5.081  60.899  26.427  0.00  0.00    +0.000 C 
BRANCH  22  23
ATOM     23  N   UNL     1       4.256  61.732  27.318  0.00  0.00    +0.000 N 
ATOM     24  H   UNL     1       3.597  62.230  26.718  0.00  0.00    +0.000 HD
BRANCH  23  25
ATOM     25  C   UNL     1       5.005  62.808  27.967  0.00  0.00    +0.000 C 
ATOM     26  C   UNL     1       5.857  62.366  29.158  0.00  0.00    +0.000 C 
BRANCH  25  27
ATOM     27  O   UNL     1       5.823  63.501  27.042  0.00  0.00    +0.000 OA
ATOM     28  H   UNL     1       6.752  63.421  27.308  0.00  0.00    +0.000 HD
ENDBRANCH  25  27
ENDBRANCH  23  25
BRANCH  23  30
ATOM     29  C   UNL     1       1.937  61.159  27.873  0.00  0.00    +0.000 C 
ATOM     30  C   UNL     1       3.405  60.934  28.212  0.00  0.00    +0.000 C 
ENDBRANCH  23  30
ENDBRANCH  22  23
ENDBRANCH   1  18
BRANCH   1  31
ATOM     31  O   UNL     1       4.941  57.264  23.474  0.00  0.00    +0.000 OA
ATOM     32  H   UNL     1       4.136  56.724  23.479  0.00  0.00    +0.000 HD
ENDBRANCH   1  31
TORSDOF 10
ENDMDL

