=
 OpenBabel12172413053D

 28 29  0  0  1  0  0  0  0  0999 V2000
    4.9610   57.3870   21.5880 C   0  0  1  0  0  3  0  0  0  0  0  0
    4.4260   56.8610   25.3500 C   0  0  0  0  0  0  0  0  0  0  0  0
    3.3240   56.0080   25.3460 C   0  0  0  0  0  3  0  0  0  0  0  0
    3.2730   56.0590   22.9240 C   0  0  0  0  0  3  0  0  0  0  0  0
    4.3790   56.9150   22.9060 C   0  0  0  0  0  0  0  0  0  0  0  0
    2.7500   55.6090   24.1370 C   0  0  0  0  0  3  0  0  0  0  0  0
    4.9480   57.3040   24.1300 C   0  0  0  0  0  3  0  0  0  0  0  0
    5.0940   57.3260   26.4480 O   0  0  0  0  0  0  0  0  0  0  0  0
    6.1690   58.2430   26.2750 C   0  0  2  0  0  3  0  0  0  0  0  0
    7.3780   57.5880   26.7670 N   0  0  0  0  0  4  0  0  0  0  0  0
    7.4390   57.7030   27.7790 H   0  0  0  0  0  0  0  0  0  0  0  0
    8.1960   58.0080   26.3270 H   0  0  0  0  0  0  0  0  0  0  0  0
    7.3420   56.5940   26.5400 H   0  0  0  0  0  0  0  0  0  0  0  0
    5.2860   60.6420   26.2550 C   0  0  0  0  0  1  0  0  0  0  0  0
    5.9000   59.5220   27.0830 C   0  0  0  0  0  2  0  0  0  0  0  0
    4.6450   56.4360   20.5620 O   0  0  0  0  0  0  0  0  0  0  0  0
    5.4460   55.9460   20.3190 H   0  0  0  0  0  0  0  0  0  0  0  0
    4.4560   58.7740   21.1480 C   0  0  0  0  0  2  0  0  0  0  0  0
    6.5560   61.9320   20.5290 C   0  0  0  0  0  0  0  0  0  0  0  0
    7.7170   61.3690   20.0000 C   0  0  0  0  0  3  0  0  0  0  0  0
    5.5710   59.7330   20.7800 C   0  0  0  0  0  0  0  0  0  0  0  0
    5.4570   61.1400   20.9140 C   0  0  0  0  0  0  0  0  0  0  0  0
    7.8180   59.9910   19.8630 C   0  0  0  0  0  3  0  0  0  0  0  0
    6.7570   59.1800   20.2540 C   0  0  0  0  0  3  0  0  0  0  0  0
    4.2020   61.7780   21.4740 C   0  0  0  0  0  2  0  0  0  0  0  0
    4.3220   62.0610   22.9640 C   0  0  0  0  0  1  0  0  0  0  0  0
    6.5760   63.2960   20.6390 O   0  0  0  0  0  0  0  0  0  0  0  0
    5.9300   63.8110   20.1970 H   0  0  0  0  0  0  0  0  0  0  0  0
  1 18  1  6  0  0  0
  1  5  1  0  0  0  0
  2  8  1  0  0  0  0
  3  2  1  0  0  0  0
  4  6  1  0  0  0  0
  5  4  2  0  0  0  0
  5  7  1  0  0  0  0
  6  3  2  0  0  0  0
  7  2  2  0  0  0  0
  9  8  1  0  0  0  0
  9 10  1  0  0  0  0
  9 15  1  1  0  0  0
 10 11  1  0  0  0  0
 12 10  1  0  0  0  0
 13 10  1  0  0  0  0
 14 15  1  0  0  0  0
 16  1  1  0  0  0  0
 17 16  1  0  0  0  0
 19 27  1  0  0  0  0
 19 22  1  0  0  0  0
 20 19  2  0  0  0  0
 21 22  2  0  0  0  0
 21 18  1  0  0  0  0
 22 25  1  0  0  0  0
 23 20  1  0  0  0  0
 23 24  2  0  0  0  0
 24 21  1  0  0  0  0
 25 26  1  0  0  0  0
 28 27  1  0  0  0  0
M  END
>  <MODEL>
1

>  <REMARK>
 VINA RESULT:      -7.0      0.000      0.000
  Name = 
  12 active torsions:
  status: ('A' for Active; 'I' for Inactive)
    1  A    between atoms: O_1  and  C_12
    2  A    between atoms: C_2  and  O_18
    3  A    between atoms: C_3  and  O_22
    4  A    between atoms: C_4  and  C_10
    5  A    between atoms: C_4  and  C_16
    6  A    between atoms: C_7  and  O_18
    7  A    between atoms: C_7  and  N_19
    8  A    between atoms: C_7  and  C_21
    9  A    between atoms: C_8  and  C_15
   10  A    between atoms: C_12  and  C_13
   11  A    between atoms: C_12  and  C_15
   12  A    between atoms: C_14  and  C_21
                            x       y       z     vdW  Elec       q    Type
                         _______ _______ _______ _____ _____    ______ ____

>  <TORSDO>
F 10

$$$$
=
 OpenBabel12172413063D

 32 34  0  0  1  0  0  0  0  0999 V2000
    4.5880   58.6470   23.4110 C   0  0  2  0  0  3  0  0  0  0  0  0
    6.2010   59.3180   20.0710 C   0  0  1  0  0  3  0  0  0  0  0  0
    5.1810   60.6300   21.8040 C   0  0  1  0  0  3  0  0  0  0  0  0
    6.9350   61.5420   19.9180 C   0  0  1  0  0  3  0  0  0  0  0  0
    4.7760   59.1110   21.9530 C   0  0  1  0  0  3  0  0  0  0  0  0
    7.4960   59.1950   19.2920 C   0  0  0  0  0  2  0  0  0  0  0  0
    5.7810   58.2940   21.1000 C   0  0  0  0  0  2  0  0  0  0  0  0
    7.9150   60.6690   19.0670 C   0  0  1  0  0  3  0  0  0  0  0  0
    6.4470   60.5410   20.9480 C   0  0  2  0  0  3  0  0  0  0  0  0
    7.5670   62.7130   20.5200 N   0  0  0  0  0  4  0  0  0  0  0  0
    7.0560   62.9810   21.3620 H   0  0  0  0  0  0  0  0  0  0  0  0
    7.5550   63.4850   19.8550 H   0  0  0  0  0  0  0  0  0  0  0  0
    8.5320   62.4900   20.7660 H   0  0  0  0  0  0  0  0  0  0  0  0
    3.7940   62.7860   21.8970 C   0  0  0  0  0  1  0  0  0  0  0  0
    4.0080   61.4390   21.2210 C   0  0  0  0  0  2  0  0  0  0  0  0
    7.8270   61.0040   17.6890 O   0  0  0  0  0  0  0  0  0  0  0  0
    6.9450   61.3610   17.4990 H   0  0  0  0  0  0  0  0  0  0  0  0
    5.3360   59.4490   24.4960 C   0  0  1  0  0  3  0  0  0  0  0  0
    5.2910   59.4720   26.9540 C   0  0  0  0  0  2  0  0  0  0  0  0
    4.4690   60.5930   25.0530 C   0  0  0  0  0  2  0  0  0  0  0  0
    5.7760   58.6700   25.7480 C   0  0  0  0  0  2  0  0  0  0  0  0
    5.0810   60.8990   26.4270 C   0  0  1  0  0  3  0  0  0  0  0  0
    4.2560   61.7320   27.3180 N   0  0  0  0  0  4  0  0  0  0  0  0
    3.5970   62.2300   26.7180 H   0  0  0  0  0  0  0  0  0  0  0  0
    5.0050   62.8080   27.9670 C   0  0  1  0  0  3  0  0  0  0  0  0
    5.8570   62.3660   29.1580 C   0  0  0  0  0  1  0  0  0  0  0  0
    5.8230   63.5010   27.0420 O   0  0  0  0  0  0  0  0  0  0  0  0
    6.7520   63.4210   27.3080 H   0  0  0  0  0  0  0  0  0  0  0  0
    1.9370   61.1590   27.8730 C   0  0  0  0  0  1  0  0  0  0  0  0
    3.4050   60.9340   28.2120 C   0  0  0  0  0  2  0  0  0  0  0  0
    4.9410   57.2640   23.4740 O   0  0  0  0  0  0  0  0  0  0  0  0
    4.1360   56.7240   23.4790 H   0  0  0  0  0  0  0  0  0  0  0  0
  1 31  1  6  0  0  0
  1 18  1  0  0  0  0
  2  6  1  1  0  0  0
  2  9  1  0  0  0  0
  2  7  1  0  0  0  0
  3 15  1  6  0  0  0
  3  5  1  0  0  0  0
  4 10  1  1  0  0  0
  4  9  1  0  0  0  0
  5  1  1  1  0  0  0
  7  5  1  0  0  0  0
  8 16  1  6  0  0  0
  8  6  1  0  0  0  0
  8  4  1  0  0  0  0
  9  3  1  0  0  0  0
 10 13  1  0  0  0  0
 10 11  1  0  0  0  0
 12 10  1  0  0  0  0
 15 14  1  0  0  0  0
 17 16  1  0  0  0  0
 18 20  1  0  0  0  0
 18 21  1  0  0  0  0
 20 22  1  0  0  0  0
 21 19  1  0  0  0  0
 22 19  1  0  0  0  0
 22 23  1  0  0  0  0
 23 25  1  0  0  0  0
 23 30  1  0  0  0  0
 24 23  1  0  0  0  0
 25 26  1  0  0  0  0
 27 28  1  0  0  0  0
 27 25  1  0  0  0  0
 29 30  1  0  0  0  0
 31 32  1  0  0  0  0
M  END
>  <MODEL>
1

>  <REMARK>
 VINA RESULT:      -6.5      0.000      0.000
  Name = 
  13 active torsions:
  status: ('A' for Active; 'I' for Inactive)
    1  A    between atoms: C_1  and  N_5
    2  A    between atoms: C_1  and  O_11
    3  A    between atoms: C_1  and  C_16
    4  A    between atoms: C_2  and  C_6
    5  A    between atoms: C_4  and  C_24
    6  A    between atoms: N_5  and  C_18
    7  A    between atoms: N_5  and  C_25
    8  A    between atoms: C_6  and  C_10
    9  A    between atoms: C_6  and  O_13
   10  A    between atoms: N_7  and  C_9
   11  A    between atoms: C_8  and  C_24
   12  A    between atoms: C_12  and  C_18
   13  A    between atoms: C_21  and  O_23
                            x       y       z     vdW  Elec       q    Type
                         _______ _______ _______ _____ _____    ______ ____

>  <TORSDO>
F 10

$$$$
