
     RDKit          3D

 23 24  0  0  0  0  0  0  0  0999 V2000
    2.3055   56.7070   18.9663 O   0  0  0  0  0  0  0  0  0  0  0  0
    2.5247   53.6647   21.9387 C   0  0  0  0  0  0  0  0  0  0  0  0
    5.8171   60.0370   22.2685 C   0  0  0  0  0  0  0  0  0  0  0  0
    4.7300   60.2266   19.9794 C   0  0  0  0  0  0  0  0  0  0  0  0
    5.9330   59.4777   23.5396 C   0  0  0  0  0  0  0  0  0  0  0  0
    3.8141   53.1947   22.1813 C   0  0  0  0  0  0  0  0  0  0  0  0
    1.3921   51.8054   22.9687 C   0  0  0  0  0  0  0  0  0  0  0  0
    3.9184   58.6123   21.7874 C   0  0  0  0  0  0  0  0  0  0  0  0
    4.7472   55.1007   21.0114 C   0  0  0  0  0  0  0  0  0  0  0  0
    4.8274   59.6134   21.3605 C   0  0  0  0  0  0  0  0  0  0  0  0
    5.0452   58.4920   23.9481 C   0  0  0  0  0  0  0  0  0  0  0  0
    3.2717   56.8940   20.0078 C   0  0  0  0  0  0  0  0  0  0  0  0
    3.4608   55.5905   20.7578 C   0  0  0  0  0  0  0  0  0  0  0  0
    1.6639   50.6615   25.2382 C   0  0  0  0  0  0  0  0  0  0  0  0
    2.8156   58.0629   20.9005 C   0  0  0  0  0  0  0  0  0  0  0  0
    3.8950   61.4995   19.9770 C   0  0  0  0  0  0  0  0  0  0  0  0
    4.9210   53.9115   21.7186 C   0  0  0  0  0  0  0  0  0  0  0  0
    1.3552   53.0792   22.3350 O   0  0  0  0  0  0  0  0  0  0  0  0
    0.1212   51.1453   22.6829 N   0  0  0  0  0  0  0  0  0  0  0  0
    4.0434   58.0666   23.0807 C   0  0  0  0  0  0  0  0  0  0  0  0
    1.5617   51.9804   24.4860 C   0  0  0  0  0  0  0  0  0  0  0  0
    6.7302   61.0149   21.9821 O   0  0  0  0  0  0  0  0  0  0  0  0
    2.3580   54.8612   21.2331 C   0  0  0  0  0  0  0  0  0  0  0  0
  1 12  1  0
  2  6  4  0
  2 18  1  0
  2 23  4  0
  3  5  4  0
  3 10  4  0
  3 22  1  0
  4 10  1  0
  4 16  1  0
  5 11  4  0
  6 17  4  0
  7 18  1  0
  7 19  1  0
  7 21  1  0
  8 10  4  0
  8 15  1  0
  8 20  4  0
  9 13  4  0
  9 17  4  0
 11 20  4  0
 12 13  1  0
 12 15  1  0
 13 23  4  0
 14 21  1  0
M  END
$$$$

     RDKit          3D

 25 27  0  0  0  0  0  0  0  0999 V2000
    0.9323   52.6407   22.0369 C   0  0  0  0  0  0  0  0  0  0  0  0
    3.7876   55.9596   21.5135 C   0  0  0  0  0  0  0  0  0  0  0  0
    6.2357   59.5412   21.3233 C   0  0  0  0  0  0  0  0  0  0  0  0
    3.9837   59.0726   20.6441 C   0  0  0  0  0  0  0  0  0  0  0  0
    2.1904   52.7706   22.7709 N   0  0  0  0  0  0  0  0  0  0  0  0
    4.3036   56.5128   20.1699 C   0  0  0  0  0  0  0  0  0  0  0  0
    3.6090   61.5270   22.9856 N   0  0  0  0  0  0  0  0  0  0  0  0
    2.4111   60.8759   19.7190 C   0  0  0  0  0  0  0  0  0  0  0  0
    4.7900   61.1610   22.2073 C   0  0  0  0  0  0  0  0  0  0  0  0
    4.9466   57.9159   20.1657 C   0  0  0  0  0  0  0  0  0  0  0  0
   -0.0547   53.5221   22.5438 O   0  0  0  0  0  0  0  0  0  0  0  0
    3.0549   50.9634   24.1878 C   0  0  0  0  0  0  0  0  0  0  0  0
    5.1928   55.5802   19.5535 O   0  0  0  0  0  0  0  0  0  0  0  0
    4.2541   54.1561   23.1206 C   0  0  0  0  0  0  0  0  0  0  0  0
    7.0290   60.1048   22.4873 C   0  0  0  0  0  0  0  0  0  0  0  0
    0.3569   51.2243   21.9953 C   0  0  0  0  0  0  0  0  0  0  0  0
    6.2693   58.0744   20.9624 C   0  0  0  0  0  0  0  0  0  0  0  0
    2.1874   52.2139   24.1297 C   0  0  0  0  0  0  0  0  0  0  0  0
    2.8607   54.7491   21.3068 C   0  0  0  0  0  0  0  0  0  0  0  0
    4.8280   55.4406   22.5169 C   0  0  0  0  0  0  0  0  0  0  0  0
    6.1265   61.2467   23.0166 C   0  0  0  0  0  0  0  0  0  0  0  0
    4.7906   59.7062   21.7789 C   0  0  0  0  0  0  0  0  0  0  0  0
    6.7310   62.5186   22.8299 O   0  0  0  0  0  0  0  0  0  0  0  0
    3.6189   59.9870   19.4600 C   0  0  0  0  0  0  0  0  0  0  0  0
    2.7762   54.1195   22.7038 C   0  0  0  0  0  0  0  0  0  0  0  0
  1  5  1  0
  1 11  1  0
  1 16  1  0
  2  6  1  0
  2 19  1  0
  2 20  1  0
  3 15  1  0
  3 17  1  0
  3 22  1  0
  4 10  1  0
  4 22  1  0
  4 24  1  0
  5 18  1  0
  5 25  1  0
  6 10  1  0
  6 13  1  0
  7  9  1  0
  8 24  1  0
  9 21  1  0
  9 22  1  0
 10 17  1  0
 12 18  1  0
 14 20  1  0
 14 25  1  0
 15 21  1  0
 19 25  1  0
 21 23  1  0
M  END
$$$$
