=
 OpenBabel12172413073D

 25 26  0  0  1  0  0  0  0  0999 V2000
    5.6030   60.7880   22.0840 C   0  0  1  0  0  3  0  0  0  0  0  0
    5.9890   61.3490   20.7050 C   0  0  1  0  0  3  0  0  0  0  0  0
    7.7190   61.1410   18.9690 C   0  0  1  0  0  3  0  0  0  0  0  0
    6.9250   62.5560   20.7220 C   0  0  0  0  0  2  0  0  0  0  0  0
    7.4440   62.6060   19.2940 C   0  0  0  0  0  2  0  0  0  0  0  0
    6.5980   60.3730   19.6840 C   0  0  0  0  0  2  0  0  0  0  0  0
    7.6710   60.8530   17.5780 O   0  0  0  0  0  0  0  0  0  0  0  0
    8.9350   60.5280   17.0140 C   0  0  1  0  0  3  0  0  0  0  0  0
    7.4640   58.5050   16.5810 C   0  0  0  0  0  1  0  0  0  0  0  0
    8.8150   59.1610   16.3390 C   0  0  0  0  0  2  0  0  0  0  0  0
    9.3060   61.5120   16.0670 O   0  0  0  0  0  0  0  0  0  0  0  0
    8.5500   61.7080   15.4910 H   0  0  0  0  0  0  0  0  0  0  0  0
    5.7040   61.8180   23.0720 O   0  0  0  0  0  0  0  0  0  0  0  0
    5.6520   61.4240   23.9570 H   0  0  0  0  0  0  0  0  0  0  0  0
    4.2760   60.0120   22.2370 C   0  0  0  0  0  2  0  0  0  0  0  0
    3.9260   58.1150   20.5960 C   0  0  0  0  0  3  0  0  0  0  0  0
    4.6600   57.5860   22.8370 C   0  0  0  0  0  3  0  0  0  0  0  0
    4.3480   55.8350   21.2000 C   0  0  0  0  0  3  0  0  0  0  0  0
    3.9390   56.7600   20.2280 C   0  0  0  0  0  0  0  0  0  0  0  0
    4.6940   56.2380   22.4930 C   0  0  0  0  0  3  0  0  0  0  0  0
    4.2940   58.5430   21.8870 C   0  0  0  0  0  0  0  0  0  0  0  0
    3.6090   56.3310   18.9240 N   0  0  0  0  0  0  0  0  0  0  0  0
    2.4790   55.4130   18.7860 C   0  0  0  0  0  1  0  0  0  0  0  0
    4.6390   55.9880   18.0410 O   0  0  0  0  0  0  0  0  0  0  0  0
    5.4720   55.9030   18.5310 H   0  0  0  0  0  0  0  0  0  0  0  0
  1 15  1  6  0  0  0
  1 13  1  0  0  0  0
  2  4  1  0  0  0  0
  2  1  1  1  0  0  0
  3  7  1  6  0  0  0
  3  5  1  0  0  0  0
  3  6  1  0  0  0  0
  5  4  1  0  0  0  0
  6  2  1  0  0  0  0
  8 10  1  6  0  0  0
  8  7  1  0  0  0  0
 10  9  1  0  0  0  0
 11  8  1  0  0  0  0
 12 11  1  0  0  0  0
 13 14  1  0  0  0  0
 16 21  1  0  0  0  0
 18 20  2  0  0  0  0
 19 16  2  0  0  0  0
 19 18  1  0  0  0  0
 20 17  1  0  0  0  0
 21 15  1  0  0  0  0
 21 17  2  0  0  0  0
 22 19  1  0  0  0  0
 23 22  1  0  0  0  0
 24 25  1  0  0  0  0
 24 22  1  0  0  0  0
M  END
>  <MODEL>
1

>  <REMARK>
 VINA RESULT:      -7.5      0.000      0.000
  Name = 
  12 active torsions:
  status: ('A' for Active; 'I' for Inactive)
    1  A    between atoms: C_1  and  C_11
    2  A    between atoms: C_2  and  O_12
    3  A    between atoms: C_2  and  O_16
    4  A    between atoms: C_2  and  C_19
    5  A    between atoms: N_5  and  C_9
    6  A    between atoms: N_5  and  C_10
    7  A    between atoms: N_5  and  O_17
    8  A    between atoms: C_6  and  O_12
    9  A    between atoms: C_11  and  O_14
   10  A    between atoms: C_11  and  C_22
   11  A    between atoms: C_15  and  C_19
   12  A    between atoms: C_21  and  C_22
                            x       y       z     vdW  Elec       q    Type
                         _______ _______ _______ _____ _____    ______ ____

>  <TORSDO>
F 10

$$$$
=
 OpenBabel12172413073D

 25 26  0  0  1  0  0  0  0  0999 V2000
    4.9690   57.3820   21.6600 C   0  0  1  0  0  3  0  0  0  0  0  0
    4.4380   56.9220   23.0040 C   0  0  0  0  0  0  0  0  0  0  0  0
    4.6420   56.7900   25.4370 C   0  0  0  0  0  0  0  0  0  0  0  0
    3.2590   56.1710   23.0780 C   0  0  0  0  0  3  0  0  0  0  0  0
    5.1200   57.2210   24.1940 C   0  0  0  0  0  3  0  0  0  0  0  0
    2.7790   55.7340   24.3120 C   0  0  0  0  0  3  0  0  0  0  0  0
    3.4670   56.0430   25.4890 C   0  0  0  0  0  3  0  0  0  0  0  0
    5.4220   57.1590   26.4970 O   0  0  0  0  0  0  0  0  0  0  0  0
    6.3340   58.2400   26.3420 C   0  0  1  0  0  3  0  0  0  0  0  0
    5.8130   59.4910   27.0590 C   0  0  0  0  0  2  0  0  0  0  0  0
    5.2170   60.5060   26.0960 C   0  0  0  0  0  1  0  0  0  0  0  0
    7.5700   57.8430   26.9320 O   0  0  0  0  0  0  0  0  0  0  0  0
    8.2950   58.3520   26.5360 H   0  0  0  0  0  0  0  0  0  0  0  0
    4.6170   56.4230   20.6560 O   0  0  0  0  0  0  0  0  0  0  0  0
    5.0570   55.5790   20.8470 H   0  0  0  0  0  0  0  0  0  0  0  0
    4.4440   58.7630   21.2270 C   0  0  0  0  0  2  0  0  0  0  0  0
    7.7760   60.0020   19.8570 C   0  0  0  0  0  3  0  0  0  0  0  0
    6.4610   61.9280   20.4290 C   0  0  0  0  0  0  0  0  0  0  0  0
    6.3560   63.2640   20.4930 F   0  0  0  0  0  0  0  0  0  0  0  0
    5.5380   59.7210   20.7970 C   0  0  0  0  0  0  0  0  0  0  0  0
    6.7340   59.1800   20.2900 C   0  0  0  0  0  3  0  0  0  0  0  0
    7.6380   61.3820   19.9290 C   0  0  0  0  0  3  0  0  0  0  0  0
    5.3940   61.1240   20.8630 C   0  0  0  0  0  0  0  0  0  0  0  0
    4.1640   61.8070   21.4140 C   0  0  0  0  0  2  0  0  0  0  0  0
    4.3400   62.1980   22.8750 C   0  0  0  0  0  1  0  0  0  0  0  0
  1 16  1  6  0  0  0
  1  2  1  0  0  0  0
  2  4  2  0  0  0  0
  2  5  1  0  0  0  0
  3  7  1  0  0  0  0
  3  8  1  0  0  0  0
  4  6  1  0  0  0  0
  5  3  2  0  0  0  0
  6  7  2  0  0  0  0
  9  8  1  0  0  0  0
  9 12  1  0  0  0  0
  9 10  1  1  0  0  0
 11 10  1  0  0  0  0
 13 12  1  0  0  0  0
 14 15  1  0  0  0  0
 14  1  1  0  0  0  0
 17 22  2  0  0  0  0
 17 21  1  0  0  0  0
 18 19  1  0  0  0  0
 18 23  2  0  0  0  0
 20 23  1  0  0  0  0
 20 16  1  0  0  0  0
 21 20  2  0  0  0  0
 22 18  1  0  0  0  0
 23 24  1  0  0  0  0
 24 25  1  0  0  0  0
M  END
>  <MODEL>
1

>  <REMARK>
 VINA RESULT:      -7.2      0.000      0.000
  Name = 
  11 active torsions:
  status: ('A' for Active; 'I' for Inactive)
    1  A    between atoms: C_1  and  C_20
    2  A    between atoms: C_3  and  C_8
    3  A    between atoms: C_3  and  O_13
    4  A    between atoms: C_3  and  O_15
    5  A    between atoms: C_6  and  O_15
    6  A    between atoms: C_7  and  C_11
    7  A    between atoms: C_8  and  C_18
    8  A    between atoms: C_11  and  C_20
    9  A    between atoms: C_14  and  C_21
   10  A    between atoms: C_14  and  C_22
   11  A    between atoms: O_17  and  C_20
                            x       y       z     vdW  Elec       q    Type
                         _______ _______ _______ _____ _____    ______ ____

>  <TORSDO>
F 9

$$$$
=
 OpenBabel12172413073D

 23 23  0  0  1  0  0  0  0  0999 V2000
    4.8090   57.2470   21.0230 C   0  0  2  0  0  3  0  0  0  0  0  0
    3.0350   55.6750   22.0350 C   0  0  0  0  0  2  0  0  0  0  0  0
    3.8600   57.1770   19.8190 C   0  0  0  0  0  2  0  0  0  0  0  0
    5.0950   56.3220   23.3730 C   0  0  0  0  0  1  0  0  0  0  0  0
    4.0910   56.7770   22.3100 C   0  0  1  0  0  3  0  0  0  0  0  0
    3.3050   54.8460   20.7750 C   0  0  1  0  0  0  0  0  0  0  0  0
    3.4140   55.7370   19.5210 C   0  0  0  0  0  2  0  0  0  0  0  0
    4.5530   54.1550   20.9460 O   0  0  0  0  0  0  0  0  0  0  0  0
    5.0980   54.2700   20.1520 H   0  0  0  0  0  0  0  0  0  0  0  0
    2.2240   53.7610   20.5930 C   0  0  0  0  0  2  0  0  0  0  0  0
    2.2980   53.2400   19.2620 O   0  0  0  0  0  0  0  0  0  0  0  0
    1.4250   53.2960   18.8440 H   0  0  0  0  0  0  0  0  0  0  0  0
    5.6020   58.5810   21.1110 C   0  0  0  0  0  2  0  0  0  0  0  0
    3.4550   59.9780   21.3820 C   0  0  0  0  0  1  0  0  0  0  0  0
    5.2880   60.2090   23.0630 C   0  0  0  0  0  1  0  0  0  0  0  0
    4.9830   59.9330   21.5750 C   0  0  0  0  0  0  0  0  0  0  0  0
    5.5630   61.1210   20.7210 C   0  0  0  0  0  2  0  0  0  0  0  0
    7.0920   61.2110   20.5100 C   0  0  1  0  0  3  0  0  0  0  0  0
    7.5460   60.8840   19.0880 C   0  0  0  0  0  1  0  0  0  0  0  0
    7.5060   62.5980   20.7780 N   0  0  0  0  0  4  0  0  0  0  0  0
    8.4600   62.6040   21.1410 H   0  0  0  0  0  0  0  0  0  0  0  0
    6.8790   63.0130   21.4660 H   0  0  0  0  0  0  0  0  0  0  0  0
    7.4680   63.1370   19.9140 H   0  0  0  0  0  0  0  0  0  0  0  0
  1 13  1  1  0  0  0
  1  5  1  0  0  0  0
  2  5  1  0  0  0  0
  3  1  1  0  0  0  0
  5  4  1  1  0  0  0
  6 10  1  6  0  0  0
  6  8  1  0  0  0  0
  6  2  1  0  0  0  0
  7  3  1  0  0  0  0
  7  6  1  0  0  0  0
  9  8  1  0  0  0  0
 11 10  1  0  0  0  0
 12 11  1  0  0  0  0
 13 16  1  0  0  0  0
 14 16  1  0  0  0  0
 16 15  1  0  0  0  0
 17 16  1  0  0  0  0
 18 19  1  6  0  0  0
 18 17  1  0  0  0  0
 18 20  1  0  0  0  0
 20 21  1  0  0  0  0
 20 22  1  0  0  0  0
 23 20  1  0  0  0  0
M  END
>  <MODEL>
1

>  <REMARK>
 VINA RESULT:      -6.1      0.000      0.000
  Name = 
  12 active torsions:
  status: ('A' for Active; 'I' for Inactive)
    1  A    between atoms: C_1  and  C_9
    2  A    between atoms: C_3  and  C_16
    3  A    between atoms: O_4  and  C_7
    4  A    between atoms: C_5  and  N_12
    5  A    between atoms: C_5  and  C_15
    6  A    between atoms: C_5  and  C_17
    7  A    between atoms: O_6  and  C_14
    8  A    between atoms: C_7  and  C_14
    9  A    between atoms: C_8  and  C_16
   10  A    between atoms: C_9  and  C_16
   11  A    between atoms: C_11  and  C_13
   12  A    between atoms: C_16  and  C_17
                            x       y       z     vdW  Elec       q    Type
                         _______ _______ _______ _____ _____    ______ ____

>  <TORSDO>
F 8

$$$$
=
 OpenBabel12172413083D

 29 29  0  0  1  0  0  0  0  0999 V2000
    5.9430   59.9940   21.2600 C   0  0  0  0  0  2  0  0  0  0  0  0
    4.9400   62.2210   21.3300 C   0  0  2  0  0  3  0  0  0  0  0  0
    4.5190   61.3940   22.5470 C   0  0  0  0  0  2  0  0  0  0  0  0
    3.4550   59.4540   21.3290 C   0  0  0  0  0  1  0  0  0  0  0  0
    5.7900   61.2880   20.4430 C   0  0  1  0  0  3  0  0  0  0  0  0
    4.6810   59.9150   22.1370 C   0  0  1  0  0  0  0  0  0  0  0  0
    5.6280   63.3820   21.7680 O   0  0  0  0  0  0  0  0  0  0  0  0
    6.2420   63.1450   22.4800 H   0  0  0  0  0  0  0  0  0  0  0  0
    4.8760   59.0630   23.4020 C   0  0  0  0  0  2  0  0  0  0  0  0
    4.6560   57.3010   23.2170 S   0  0  0  0  0  0  0  0  0  0  0  0
    3.1490   56.9300   23.5970 O   0  0  0  0  0  0  0  0  0  0  0  0
    2.6750   57.7330   23.8620 H   0  0  0  0  0  0  0  0  0  0  0  0
    5.6600   56.5890   24.2390 O   0  0  0  0  0  0  0  0  0  0  0  0
    6.1610   57.2630   24.7220 H   0  0  0  0  0  0  0  0  0  0  0  0
    4.9930   56.8590   21.7200 O   0  0  0  0  0  0  0  0  0  0  0  0
    4.6810   57.5400   21.1040 H   0  0  0  0  0  0  0  0  0  0  0  0
    7.1460   61.8330   19.9770 C   0  0  0  0  0  2  0  0  0  0  0  0
    7.3620   61.7150   18.5270 N   0  0  0  0  0  4  0  0  0  0  0  0
    6.4580   61.7550   18.0570 H   0  0  0  0  0  0  0  0  0  0  0  0
    7.9660   62.4840   18.2380 H   0  0  0  0  0  0  0  0  0  0  0  0
    8.0310   60.4520   18.1620 C   0  0  0  0  0  2  0  0  0  0  0  0
    8.2010   60.2160   16.6190 C   0  0  1  0  0  0  0  0  0  0  0  0
    8.2950   58.7150   16.3090 C   0  0  0  0  0  1  0  0  0  0  0  0
    7.2380   60.9580   15.8100 N   0  0  0  0  0  4  0  0  0  0  0  0
    6.4040   60.1740   14.9150 C   0  0  0  0  0  1  0  0  0  0  0  0
    7.7580   61.6270   15.2420 H   0  0  0  0  0  0  0  0  0  0  0  0
    6.5930   61.3820   16.4790 H   0  0  0  0  0  0  0  0  0  0  0  0
    9.4550   60.7770   16.2600 O   0  0  0  0  0  0  0  0  0  0  0  0
    9.3800   61.7440   16.2310 H   0  0  0  0  0  0  0  0  0  0  0  0
  1  6  1  0  0  0  0
  2  7  1  1  0  0  0
  2  3  1  0  0  0  0
  5 17  1  1  0  0  0
  5  1  1  0  0  0  0
  5  2  1  0  0  0  0
  6  4  1  6  0  0  0
  6  3  1  0  0  0  0
  6  9  1  0  0  0  0
  7  8  1  0  0  0  0
 10  9  1  0  0  0  0
 10 11  1  0  0  0  0
 10 13  1  0  0  0  0
 11 12  1  0  0  0  0
 13 14  1  0  0  0  0
 15 10  1  0  0  0  0
 16 15  1  0  0  0  0
 18 17  1  0  0  0  0
 19 18  1  0  0  0  0
 20 18  1  0  0  0  0
 21 18  1  0  0  0  0
 22 23  1  6  0  0  0
 22 21  1  0  0  0  0
 24 27  1  0  0  0  0
 24 22  1  0  0  0  0
 25 24  1  0  0  0  0
 26 24  1  0  0  0  0
 28 22  1  0  0  0  0
 29 28  1  0  0  0  0
M  END
>  <MODEL>
1

>  <REMARK>
 VINA RESULT:      -6.0      0.000      0.000
  Name = 
  15 active torsions:
  status: ('A' for Active; 'I' for Inactive)
    1  A    between atoms: C_1  and  O_6
    2  A    between atoms: C_1  and  N_9
    3  A    between atoms: C_1  and  C_10
    4  A    between atoms: C_1  and  C_18
    5  A    between atoms: N_2  and  C_10
    6  A    between atoms: N_2  and  C_20
    7  A    between atoms: S_3  and  C_4
    8  A    between atoms: S_3  and  O_11
    9  A    between atoms: S_3  and  O_12
   10  A    between atoms: S_3  and  O_17
   11  A    between atoms: C_4  and  C_19
   12  A    between atoms: C_7  and  O_15
   13  A    between atoms: N_9  and  C_14
   14  A    between atoms: C_13  and  C_19
   15  A    between atoms: C_16  and  C_20
                            x       y       z     vdW  Elec       q    Type
                         _______ _______ _______ _____ _____    ______ ____

>  <TORSDO>
F 12

$$$$
