
     RDKit          3D

 22 23  0  0  0  0  0  0  0  0999 V2000
    3.7403   55.2824   20.6264 C   0  0  0  0  0  0  0  0  0  0  0  0
    1.3374   51.7490   22.8318 C   0  0  0  0  0  0  0  0  0  0  0  0
    4.2747   59.0438   21.7848 C   0  0  0  0  0  0  0  0  0  0  0  0
    3.8051   57.4835   23.2063 C   0  0  0  0  0  0  0  0  0  0  0  0
    6.2869   60.4579   20.6330 N   0  0  0  0  0  0  0  0  0  0  0  0
    2.4838   53.6091   22.0464 C   0  0  0  0  0  0  0  0  0  0  0  0
    5.4269   59.2914   23.2454 C   0  0  0  0  0  0  0  0  0  0  0  0
    4.6115   54.6058   21.1357 C   0  0  0  0  0  0  0  0  0  0  0  0
    4.2742   61.2618   20.3227 C   0  0  0  0  0  0  0  0  0  0  0  0
    5.0272   59.7066   21.8306 C   0  0  0  0  0  0  0  0  0  0  0  0
    3.4695   56.5486   19.8979 C   0  0  0  0  0  0  0  0  0  0  0  0
    1.4106   53.1701   22.2768 O   0  0  0  0  0  0  0  0  0  0  0  0
    3.8882   53.4264   22.0005 C   0  0  0  0  0  0  0  0  0  0  0  0
    2.3827   56.3564   18.9574 O   0  0  0  0  0  0  0  0  0  0  0  0
    1.7044   50.7654   25.2202 C   0  0  0  0  0  0  0  0  0  0  0  0
    0.0654   51.2368   22.6506 O   0  0  0  0  0  0  0  0  0  0  0  0
    6.5009   61.1792   21.8250 O   0  0  0  0  0  0  0  0  0  0  0  0
    4.8486   58.1820   23.9460 C   0  0  0  0  0  0  0  0  0  0  0  0
    1.7842   52.0795   24.3006 C   0  0  0  0  0  0  0  0  0  0  0  0
    2.4409   54.7627   21.2796 C   0  0  0  0  0  0  0  0  0  0  0  0
    3.2203   58.1258   22.0540 C   0  0  0  0  0  0  0  0  0  0  0  0
    3.4714   57.7756   21.1020 C   0  0  0  0  0  0  0  0  0  0  0  0
  1  8  1  0
  1 11  1  0
  1 20  1  0
  2 12  1  0
  2 16  1  0
  2 19  1  0
  3 10  2  0
  3 21  1  0
  4 18  1  0
  4 21  2  0
  5  9  1  0
  5 10  1  0
  5 17  1  0
  6 12  1  0
  6 13  1  0
  6 20  1  0
  7 10  1  0
  7 18  2  0
  8 13  1  0
 11 14  1  0
 11 22  1  0
 15 19  1  0
 21 22  1  0
M  END
$$$$

     RDKit          3D

 23 24  0  0  0  0  0  0  0  0999 V2000
    3.2452   55.5498   20.6115 C   0  0  0  0  0  0  0  0  0  0  0  0
    5.0474   58.5615   23.8733 C   0  0  0  0  0  0  0  0  0  0  0  0
    1.1307   51.8117   22.9006 C   0  0  0  0  0  0  0  0  0  0  0  0
    5.8006   60.1554   22.0640 C   0  0  0  0  0  0  0  0  0  0  0  0
    6.9198   61.4325   21.5438 F   0  0  0  0  0  0  0  0  0  0  0  0
    2.3627   53.6879   21.7674 C   0  0  0  0  0  0  0  0  0  0  0  0
    4.1249   58.2385   21.7434 C   0  0  0  0  0  0  0  0  0  0  0  0
    1.2836   52.1382   24.3939 C   0  0  0  0  0  0  0  0  0  0  0  0
    4.5545   55.4978   20.9447 C   0  0  0  0  0  0  0  0  0  0  0  0
    2.3233   54.8291   21.1349 C   0  0  0  0  0  0  0  0  0  0  0  0
    3.2694   57.7935   20.8637 C   0  0  0  0  0  0  0  0  0  0  0  0
    4.7058   54.2321   21.5884 C   0  0  0  0  0  0  0  0  0  0  0  0
   -0.0363   51.0092   22.7391 O   0  0  0  0  0  0  0  0  0  0  0  0
    5.0533   60.3162   20.1258 C   0  0  0  0  0  0  0  0  0  0  0  0
    1.3395   52.9643   22.0974 O   0  0  0  0  0  0  0  0  0  0  0  0
    4.1699   57.7878   23.0799 C   0  0  0  0  0  0  0  0  0  0  0  0
    2.4190   56.2840   19.0991 O   0  0  0  0  0  0  0  0  0  0  0  0
    1.3694   50.6574   25.1750 C   0  0  0  0  0  0  0  0  0  0  0  0
    5.7905   59.6919   23.3697 C   0  0  0  0  0  0  0  0  0  0  0  0
    3.5866   56.6341   20.2484 C   0  0  0  0  0  0  0  0  0  0  0  0
    4.9676   59.5201   21.4088 C   0  0  0  0  0  0  0  0  0  0  0  0
    4.2816   61.5522   20.1019 C   0  0  0  0  0  0  0  0  0  0  0  0
    3.6851   53.4074   21.9458 C   0  0  0  0  0  0  0  0  0  0  0  0
  1  9  2  0
  1 10  1  0
  1 20  1  0
  2 16  2  0
  2 19  1  0
  3  8  1  0
  3 13  1  0
  3 15  1  0
  4  5  1  0
  4 19  2  0
  4 21  1  0
  6 10  2  0
  6 15  1  0
  6 23  1  0
  7 11  1  0
  7 16  1  0
  7 21  2  0
  8 18  1  0
  9 12  1  0
 11 20  1  0
 12 23  2  0
 14 21  1  0
 14 22  1  0
 17 20  1  0
M  END
$$$$

     RDKit          3D

 18 18  0  0  0  0  0  0  0  0999 V2000
    4.9863   57.7937   20.3127 C   0  0  0  0  0  0  0  0  0  0  0  0
    4.5009   59.4395   22.1134 C   0  0  0  0  0  0  0  0  0  0  0  0
    4.5146   55.9275   22.6952 C   0  0  0  0  0  0  0  0  0  0  0  0
    6.5099   62.5709   22.3976 O   0  0  0  0  0  0  0  0  0  0  0  0
    2.1170   52.2747   24.1288 C   0  0  0  0  0  0  0  0  0  0  0  0
    3.7141   61.6383   22.8790 O   0  0  0  0  0  0  0  0  0  0  0  0
    6.0244   61.2410   22.7255 C   0  0  0  0  0  0  0  0  0  0  0  0
    2.7755   54.5444   21.3026 C   0  0  0  0  0  0  0  0  0  0  0  0
    4.4568   55.8103   20.1741 C   0  0  0  0  0  0  0  0  0  0  0  0
    6.5054   58.6575   20.6670 C   0  0  0  0  0  0  0  0  0  0  0  0
    3.3521   60.0226   19.9653 C   0  0  0  0  0  0  0  0  0  0  0  0
    0.2152   51.5846   22.1032 N   0  0  0  0  0  0  0  0  0  0  0  0
    4.3455   59.0373   20.7612 C   0  0  0  0  0  0  0  0  0  0  0  0
    4.7804   60.9082   22.1346 C   0  0  0  0  0  0  0  0  0  0  0  0
    2.7150   51.1550   23.7048 C   0  0  0  0  0  0  0  0  0  0  0  0
    3.8630   55.3559   21.5743 C   0  0  0  0  0  0  0  0  0  0  0  0
    3.2237   54.5979   23.1999 C   0  0  0  0  0  0  0  0  0  0  0  0
    6.0666   60.5057   20.9583 C   0  0  0  0  0  0  0  0  0  0  0  0
  1  9  1  0
  1 10  1  0
  1 13  1  0
  2 13  1  0
  2 14  1  0
  3 16  1  0
  4  7  1  0
  5 12  1  0
  5 15  1  0
  5 17  1  0
  6 14  1  0
  7 14  1  0
  8 16  1  0
  9 16  1  0
 10 18  1  0
 11 13  1  0
 14 18  1  0
 16 17  1  0
M  END
$$$$

     RDKit          3D

 20 20  0  0  0  0  0  0  0  0999 V2000
    1.5477   52.5735   22.3878 C   0  0  0  0  0  0  0  0  0  0  0  0
    2.8778   54.3875   21.7577 N   0  0  0  0  0  0  0  0  0  0  0  0
    5.1709   61.2326   22.3466 S   0  0  0  0  0  0  0  0  0  0  0  0
    6.4700   59.7026   21.1751 C   0  0  0  0  0  0  0  0  0  0  0  0
    4.4805   58.4139   21.7216 C   0  0  0  0  0  0  0  0  0  0  0  0
    0.2395   53.2273   22.7745 O   0  0  0  0  0  0  0  0  0  0  0  0
    4.6143   56.6763   20.4075 C   0  0  0  0  0  0  0  0  0  0  0  0
    5.6894   57.7412   20.2236 C   0  0  0  0  0  0  0  0  0  0  0  0
    2.2123   52.1202   23.6132 N   0  0  0  0  0  0  0  0  0  0  0  0
    2.6371   54.1932   22.8832 C   0  0  0  0  0  0  0  0  0  0  0  0
    3.6979   61.2210   22.9600 O   0  0  0  0  0  0  0  0  0  0  0  0
    6.1587   62.4249   22.4670 O   0  0  0  0  0  0  0  0  0  0  0  0
    3.4881   60.2512   19.9859 C   0  0  0  0  0  0  0  0  0  0  0  0
    2.8368   50.7493   23.4479 C   0  0  0  0  0  0  0  0  0  0  0  0
    5.1595   55.6116   19.7360 O   0  0  0  0  0  0  0  0  0  0  0  0
    3.9608   56.4818   21.5900 C   0  0  0  0  0  0  0  0  0  0  0  0
    5.3432   60.5162   22.9734 O   0  0  0  0  0  0  0  0  0  0  0  0
    0.1395   51.3950   21.8075 C   0  0  0  0  0  0  0  0  0  0  0  0
    5.8718   58.6004   21.0796 C   0  0  0  0  0  0  0  0  0  0  0  0
    4.3122   55.5177   22.6700 C   0  0  0  0  0  0  0  0  0  0  0  0
  1  6  1  0
  1  9  1  0
  1 10  1  0
  1 18  1  0
  2 10  1  0
  2 20  1  0
  3  4  1  0
  3 11  1  0
  3 12  1  0
  3 17  1  0
  4 19  1  0
  5 16  1  0
  5 19  1  0
  7  8  1  0
  7 15  1  0
  7 16  1  0
  8 19  1  0
  9 14  1  0
 13 19  1  0
 16 20  1  0
M  END
$$$$
