
     RDKit          3D

 28 30  0  0  0  0  0  0  0  0999 V2000
   -5.4674   34.2781    2.1482 O   0  0  0  0  0  0  0  0  0  0  0  0
   -7.1498   34.7752   -0.6862 C   0  0  0  0  0  0  0  0  0  0  0  0
   -4.0149   32.2675   10.8150 N   0  0  0  0  0  0  0  0  0  0  0  0
   -8.5786   32.0318    1.2708 C   0  0  0  0  0  0  0  0  0  0  0  0
   -7.3260   34.1922    1.7053 C   0  0  0  0  0  0  0  0  0  0  0  0
   -4.6824   33.7426    7.6589 C   0  0  0  0  0  0  0  0  0  0  0  0
   -5.7383   34.3018   -2.7143 C   0  0  0  0  0  0  0  0  0  0  0  0
   -3.9819   33.2732    9.9096 C   0  0  0  0  0  0  0  0  0  0  0  0
   -7.7682   32.3377    0.1222 C   0  0  0  0  0  0  0  0  0  0  0  0
   -7.1440   34.3178   -2.1801 C   0  0  0  0  0  0  0  0  0  0  0  0
   -6.1597   35.6073    3.5234 N   0  0  0  0  0  0  0  0  0  0  0  0
   -4.5880   31.1127   10.3128 C   0  0  0  0  0  0  0  0  0  0  0  0
   -6.4818   34.8629    2.4846 C   0  0  0  0  0  0  0  0  0  0  0  0
   -5.1821   35.8069   -2.8727 C   0  0  0  0  0  0  0  0  0  0  0  0
   -4.1833   35.4769    5.9690 C   0  0  0  0  0  0  0  0  0  0  0  0
   -4.5783   32.8804    8.7595 C   0  0  0  0  0  0  0  0  0  0  0  0
   -5.7486   33.7060   -4.1217 C   0  0  0  0  0  0  0  0  0  0  0  0
   -9.9208   32.4100    1.0672 O   0  0  0  0  0  0  0  0  0  0  0  0
   -7.4369   33.8472    0.3902 N   0  0  0  0  0  0  0  0  0  0  0  0
   -6.1404   34.5667    5.8202 C   0  0  0  0  0  0  0  0  0  0  0  0
   -3.8399   34.7725    7.1465 C   0  0  0  0  0  0  0  0  0  0  0  0
   -7.9679   32.9084    2.2762 C   0  0  0  0  0  0  0  0  0  0  0  0
   -5.9004   33.6561    6.9253 C   0  0  0  0  0  0  0  0  0  0  0  0
   -5.0417   31.3597    8.8899 O   0  0  0  0  0  0  0  0  0  0  0  0
   -4.7908   33.4371   -1.8329 C   0  0  0  0  0  0  0  0  0  0  0  0
   -6.8406   35.9334   -0.4340 O   0  0  0  0  0  0  0  0  0  0  0  0
   -3.4252   34.6555   10.0520 C   0  0  0  0  0  0  0  0  0  0  0  0
   -5.3450   35.3941    5.1071 C   0  0  0  0  0  0  0  0  0  0  0  0
  1 13  2  0
  2 10  1  0
  2 19  1  0
  2 26  2  0
  3  8  1  0
  3 12  1  0
  4  9  1  0
  4 18  1  0
  4 22  1  0
  5 13  1  0
  5 19  1  0
  5 22  1  0
  6 16  1  0
  6 21  1  0
  6 23  2  0
  7 10  1  0
  7 14  1  0
  7 17  1  0
  7 25  1  0
  8 16  1  0
  8 27  1  0
  9 19  1  0
 11 13  1  0
 11 28  1  0
 12 24  1  0
 15 21  2  0
 15 28  1  0
 16 24  1  0
 20 23  1  0
 20 28  2  0
M  END
$$$$

     RDKit          3D

 28 30  0  0  0  0  0  0  0  0999 V2000
   -7.1803   34.7655   -0.6662 C   0  0  0  0  0  0  0  0  0  0  0  0
   -5.3369   35.2056    5.0984 C   0  0  0  0  0  0  0  0  0  0  0  0
   -7.1685   34.1731    1.9373 C   0  0  0  0  0  0  0  0  0  0  0  0
   -4.0246   33.2688    9.8694 C   0  0  0  0  0  0  0  0  0  0  0  0
   -7.7542   32.3386    0.1643 C   0  0  0  0  0  0  0  0  0  0  0  0
   -5.8594   33.5758    6.7932 C   0  0  0  0  0  0  0  0  0  0  0  0
   -4.6272   31.1240   10.2377 C   0  0  0  0  0  0  0  0  0  0  0  0
   -5.7590   34.3025   -2.7299 C   0  0  0  0  0  0  0  0  0  0  0  0
   -8.5063   32.0472    1.3886 C   0  0  0  0  0  0  0  0  0  0  0  0
   -7.1627   34.3137   -2.1558 C   0  0  0  0  0  0  0  0  0  0  0  0
   -6.7761   35.3297    3.0261 C   0  0  0  0  0  0  0  0  0  0  0  0
   -4.6400   33.7806    7.5320 C   0  0  0  0  0  0  0  0  0  0  0  0
   -5.7551   35.9568    3.9827 N   0  0  0  0  0  0  0  0  0  0  0  0
   -7.8528   32.9328    2.6762 C   0  0  0  0  0  0  0  0  0  0  0  0
   -5.1758   35.7994   -2.8724 C   0  0  0  0  0  0  0  0  0  0  0  0
   -3.8067   34.7278    7.0159 C   0  0  0  0  0  0  0  0  0  0  0  0
   -5.7555   34.2160    2.0768 O   0  0  0  0  0  0  0  0  0  0  0  0
   -4.1144   32.1533   10.8001 N   0  0  0  0  0  0  0  0  0  0  0  0
   -5.7644   33.7156   -4.1310 C   0  0  0  0  0  0  0  0  0  0  0  0
   -3.4833   34.7002   10.2309 C   0  0  0  0  0  0  0  0  0  0  0  0
   -9.9067   32.4104    1.0602 O   0  0  0  0  0  0  0  0  0  0  0  0
   -6.2196   34.2997    5.5953 C   0  0  0  0  0  0  0  0  0  0  0  0
   -7.4647   33.8538    0.4223 N   0  0  0  0  0  0  0  0  0  0  0  0
   -4.8306   33.4608   -1.8861 C   0  0  0  0  0  0  0  0  0  0  0  0
   -4.4631   33.0095    8.7152 C   0  0  0  0  0  0  0  0  0  0  0  0
   -4.1057   35.4405    5.7822 C   0  0  0  0  0  0  0  0  0  0  0  0
   -4.9621   31.3828    8.7814 S   0  0  0  0  0  0  0  0  0  0  0  0
   -6.8460   35.9111   -0.4261 O   0  0  0  0  0  0  0  0  0  0  0  0
  1 10  1  0
  1 23  1  0
  1 28  2  0
  2 13  1  0
  2 22  2  0
  2 26  1  0
  3 11  1  0
  3 14  1  0
  3 17  1  0
  3 23  1  0
  4 18  1  0
  4 20  1  0
  4 25  1  0
  5  9  1  0
  5 23  1  0
  6 12  2  0
  6 22  1  0
  7 18  1  0
  7 27  1  0
  8 10  1  0
  8 15  1  0
  8 19  1  0
  8 24  1  0
  9 14  1  0
  9 21  1  0
 11 13  1  0
 12 16  1  0
 12 25  1  0
 16 26  2  0
 25 27  1  0
M  END
$$$$

     RDKit          3D

 28 29  0  0  0  0  0  0  0  0999 V2000
   -7.1455   34.8058   -0.7152 C   0  0  0  0  0  0  0  0  0  0  0  0
   -6.5911   34.8654    2.3593 C   0  0  0  0  0  0  0  0  0  0  0  0
   -4.4649   31.1523   10.3308 C   0  0  0  0  0  0  0  0  0  0  0  0
   -3.9064   33.2031    9.9566 C   0  0  0  0  0  0  0  0  0  0  0  0
   -8.5676   32.0103    1.2804 C   0  0  0  0  0  0  0  0  0  0  0  0
   -4.7164   33.7148    7.6382 C   0  0  0  0  0  0  0  0  0  0  0  0
   -7.1388   34.3180   -2.1819 C   0  0  0  0  0  0  0  0  0  0  0  0
   -4.5132   32.8991    8.7690 C   0  0  0  0  0  0  0  0  0  0  0  0
   -7.7680   32.3224    0.1099 C   0  0  0  0  0  0  0  0  0  0  0  0
   -6.5232   35.4805    3.4186 N   0  0  0  0  0  0  0  0  0  0  0  0
   -5.7082   34.3100   -2.7198 C   0  0  0  0  0  0  0  0  0  0  0  0
   -5.1971   35.2645    5.3192 C   0  0  0  0  0  0  0  0  0  0  0  0
   -5.7351   33.7067   -4.1136 C   0  0  0  0  0  0  0  0  0  0  0  0
   -5.1466   35.8274   -2.8763 C   0  0  0  0  0  0  0  0  0  0  0  0
   -7.4442   33.8393    0.2852 N   0  0  0  0  0  0  0  0  0  0  0  0
   -6.2119   34.4954    5.8995 C   0  0  0  0  0  0  0  0  0  0  0  0
   -7.9551   32.8948    2.3208 C   0  0  0  0  0  0  0  0  0  0  0  0
   -9.9095   32.4090    1.0805 O   0  0  0  0  0  0  0  0  0  0  0  0
   -3.3249   34.4991   10.0653 C   0  0  0  0  0  0  0  0  0  0  0  0
   -3.8639   34.6825    7.0748 C   0  0  0  0  0  0  0  0  0  0  0  0
   -5.4641   35.9754    4.1819 C   0  0  0  0  0  0  0  0  0  0  0  0
   -5.6194   34.2579    2.1363 O   0  0  0  0  0  0  0  0  0  0  0  0
   -4.7276   33.4330   -1.8137 C   0  0  0  0  0  0  0  0  0  0  0  0
   -6.7959   35.9504   -0.4284 O   0  0  0  0  0  0  0  0  0  0  0  0
   -5.9286   33.5988    6.9558 C   0  0  0  0  0  0  0  0  0  0  0  0
   -7.4654   34.1398    1.6982 C   0  0  0  0  0  0  0  0  0  0  0  0
   -3.8373   32.2107   10.8753 N   0  0  0  0  0  0  0  0  0  0  0  0
   -4.1454   35.4099    5.9610 C   0  0  0  0  0  0  0  0  0  0  0  0
  1  7  1  0
  1 15  1  0
  1 24  2  0
  2 10  1  0
  2 22  2  0
  2 26  1  0
  3 27  1  0
  4  8  2  3
  4 19  1  0
  4 27  1  0
  5  9  1  0
  5 17  1  0
  5 18  1  0
  6  8  1  0
  6 20  2  0
  6 25  1  0
  7 11  1  0
  9 15  1  0
 10 21  1  0
 11 13  1  0
 11 14  1  0
 11 23  1  0
 12 16  1  0
 12 21  1  0
 12 28  2  0
 15 26  1  0
 16 25  2  0
 17 26  1  0
 20 28  1  0
M  END
$$$$

     RDKit          3D

 29 31  0  0  0  0  0  0  0  0999 V2000
   -4.5201   31.1761   10.2676 C   0  0  0  0  0  0  0  0  0  0  0  0
   -7.1591   34.7739   -0.6883 C   0  0  0  0  0  0  0  0  0  0  0  0
   -5.5433   34.1816    2.1353 O   0  0  0  0  0  0  0  0  0  0  0  0
   -4.6877   33.7259    7.6655 C   0  0  0  0  0  0  0  0  0  0  0  0
   -3.9560   33.2036    9.9419 C   0  0  0  0  0  0  0  0  0  0  0  0
   -7.7608   32.3530    0.0987 C   0  0  0  0  0  0  0  0  0  0  0  0
   -7.9296   32.9280    2.4337 C   0  0  0  0  0  0  0  0  0  0  0  0
   -5.7119   34.2872   -2.7213 C   0  0  0  0  0  0  0  0  0  0  0  0
   -5.0893   31.3405    9.0294 O   0  0  0  0  0  0  0  0  0  0  0  0
   -4.6193   32.7217    8.7541 C   0  0  0  0  0  0  0  0  0  0  0  0
   -5.2628   35.2051    5.2555 C   0  0  0  0  0  0  0  0  0  0  0  0
   -9.8974   32.4295    1.0637 O   0  0  0  0  0  0  0  0  0  0  0  0
   -7.1234   34.3021   -2.1754 C   0  0  0  0  0  0  0  0  0  0  0  0
   -6.4464   35.5207    3.4108 N   0  0  0  0  0  0  0  0  0  0  0  0
   -7.4293   33.8263    0.3468 N   0  0  0  0  0  0  0  0  0  0  0  0
   -5.1574   35.7796   -2.8673 C   0  0  0  0  0  0  0  0  0  0  0  0
   -6.2029   34.2890    5.7880 C   0  0  0  0  0  0  0  0  0  0  0  0
   -5.7484   33.7114   -4.1300 C   0  0  0  0  0  0  0  0  0  0  0  0
   -7.5029   34.1233    1.7549 C   0  0  0  0  0  0  0  0  0  0  0  0
   -8.5384   32.0276    1.2954 C   0  0  0  0  0  0  0  0  0  0  0  0
   -3.3787   34.5831   10.2767 C   0  0  0  0  0  0  0  0  0  0  0  0
   -5.8948   33.4976    6.9809 C   0  0  0  0  0  0  0  0  0  0  0  0
   -4.1090   35.3847    5.9768 C   0  0  0  0  0  0  0  0  0  0  0  0
   -4.7692   33.4441   -1.8227 C   0  0  0  0  0  0  0  0  0  0  0  0
   -3.8816   34.6450    7.2443 C   0  0  0  0  0  0  0  0  0  0  0  0
   -3.9008   32.1517   10.8859 N   0  0  0  0  0  0  0  0  0  0  0  0
   -6.8288   35.9161   -0.4201 O   0  0  0  0  0  0  0  0  0  0  0  0
   -5.4904   35.8899    4.1250 C   0  0  0  0  0  0  0  0  0  0  0  0
   -6.6096   34.7588    2.3959 C   0  0  0  0  0  0  0  0  0  0  0  0
  1  9  1  0
  1 26  1  0
  2 13  1  0
  2 15  1  0
  2 27  2  0
  3 29  2  0
  4 10  1  0
  4 22  2  0
  4 25  1  0
  5 10  1  0
  5 21  1  0
  5 26  1  0
  6 15  1  0
  6 20  1  0
  7 19  1  0
  7 20  1  0
  8 13  1  0
  8 16  1  0
  8 18  1  0
  8 24  1  0
  9 10  1  0
 11 17  2  0
 11 23  1  0
 11 28  1  0
 12 20  1  0
 14 28  1  0
 14 29  1  0
 15 19  1  0
 17 22  1  0
 19 29  1  0
 23 25  2  0
M  END
$$$$

     RDKit          3D

 27 28  0  0  0  0  0  0  0  0999 V2000
   -5.3585   34.3256    2.1260 O   0  0  0  0  0  0  0  0  0  0  0  0
   -4.7347   33.6638    7.5338 C   0  0  0  0  0  0  0  0  0  0  0  0
   -4.5613   31.1560   10.1332 C   0  0  0  0  0  0  0  0  0  0  0  0
   -5.1960   35.2696    5.1617 C   0  0  0  0  0  0  0  0  0  0  0  0
   -5.9456   33.4695    6.7424 C   0  0  0  0  0  0  0  0  0  0  0  0
   -4.0728   33.1855    9.8142 C   0  0  0  0  0  0  0  0  0  0  0  0
   -7.4114   34.3129    1.5330 C   0  0  0  0  0  0  0  0  0  0  0  0
   -5.6970   33.6547   -4.1476 C   0  0  0  0  0  0  0  0  0  0  0  0
   -4.5094   32.9339    8.6775 C   0  0  0  0  0  0  0  0  0  0  0  0
   -7.0845   34.2969   -2.1957 C   0  0  0  0  0  0  0  0  0  0  0  0
   -7.7407   32.3490    0.0185 C   0  0  0  0  0  0  0  0  0  0  0  0
   -5.0858   35.8382   -2.8928 C   0  0  0  0  0  0  0  0  0  0  0  0
   -9.9254   32.3917    1.0088 O   0  0  0  0  0  0  0  0  0  0  0  0
   -4.2686   35.4108    5.8636 C   0  0  0  0  0  0  0  0  0  0  0  0
   -7.4140   33.8670    0.2953 N   0  0  0  0  0  0  0  0  0  0  0  0
   -4.6056   33.3777   -1.8414 C   0  0  0  0  0  0  0  0  0  0  0  0
   -7.7770   33.0002    2.2564 C   0  0  0  0  0  0  0  0  0  0  0  0
   -8.5300   32.0198    1.2306 C   0  0  0  0  0  0  0  0  0  0  0  0
   -6.2384   34.2233    5.6004 C   0  0  0  0  0  0  0  0  0  0  0  0
   -6.7958   35.8860   -0.4853 O   0  0  0  0  0  0  0  0  0  0  0  0
   -5.5976   34.2949   -2.7486 C   0  0  0  0  0  0  0  0  0  0  0  0
   -3.5111   34.4347   10.0771 C   0  0  0  0  0  0  0  0  0  0  0  0
   -3.9585   34.6698    7.0304 C   0  0  0  0  0  0  0  0  0  0  0  0
   -3.9919   32.2014   10.6089 N   0  0  0  0  0  0  0  0  0  0  0  0
   -5.4562   35.8238    4.1882 C   0  0  0  0  0  0  0  0  0  0  0  0
   -6.4969   34.7512    2.3924 C   0  0  0  0  0  0  0  0  0  0  0  0
   -7.0928   34.8233   -0.7231 C   0  0  0  0  0  0  0  0  0  0  0  0
  1 26  2  0
  2  5  2  0
  2  9  1  0
  2 23  1  0
  3 24  1  0
  4 14  1  0
  4 19  2  0
  4 25  1  0
  5 19  1  0
  6  9  2  3
  6 22  1  0
  6 24  1  0
  7 15  1  0
  7 17  1  0
  7 26  1  0
  8 21  1  0
 10 21  1  0
 10 27  1  0
 11 15  1  0
 11 18  1  0
 12 21  1  0
 13 18  1  0
 14 23  2  0
 15 27  1  0
 16 21  1  0
 17 18  1  0
 20 27  2  0
 25 26  1  0
M  END
$$$$

     RDKit          3D

 29 31  0  0  0  0  0  0  0  0999 V2000
   -4.5973   33.6336    7.5747 C   0  0  0  0  0  0  0  0  0  0  0  0
   -3.9003   33.1680   10.0852 C   0  0  0  0  0  0  0  0  0  0  0  0
   -7.1310   34.7850   -0.6997 C   0  0  0  0  0  0  0  0  0  0  0  0
   -6.5355   34.7328    2.2823 C   0  0  0  0  0  0  0  0  0  0  0  0
   -7.7485   32.3473    0.1142 C   0  0  0  0  0  0  0  0  0  0  0  0
   -5.7243   34.2945   -2.6905 C   0  0  0  0  0  0  0  0  0  0  0  0
   -4.4107   32.8892    8.7861 C   0  0  0  0  0  0  0  0  0  0  0  0
   -4.4346   31.0724   10.4201 C   0  0  0  0  0  0  0  0  0  0  0  0
   -6.2079   34.2406    5.7921 C   0  0  0  0  0  0  0  0  0  0  0  0
   -7.1371   34.3075   -2.1670 C   0  0  0  0  0  0  0  0  0  0  0  0
   -4.1088   35.1518    6.1335 C   0  0  0  0  0  0  0  0  0  0  0  0
   -5.3487   35.9100    4.0829 C   0  0  0  0  0  0  0  0  0  0  0  0
   -9.8967   32.4321    1.0323 O   0  0  0  0  0  0  0  0  0  0  0  0
   -7.4284   33.8285    0.2948 N   0  0  0  0  0  0  0  0  0  0  0  0
   -7.7455   32.9199    2.4599 C   0  0  0  0  0  0  0  0  0  0  0  0
   -5.4081   34.2590    2.0458 O   0  0  0  0  0  0  0  0  0  0  0  0
   -5.7496   33.7177   -4.0920 C   0  0  0  0  0  0  0  0  0  0  0  0
   -5.8809   33.4421    6.9170 C   0  0  0  0  0  0  0  0  0  0  0  0
   -5.1489   35.7951   -2.8554 C   0  0  0  0  0  0  0  0  0  0  0  0
   -6.5397   35.3942    3.3899 N   0  0  0  0  0  0  0  0  0  0  0  0
   -8.5033   32.0296    1.2872 C   0  0  0  0  0  0  0  0  0  0  0  0
   -3.4301   34.4142    9.9844 C   0  0  0  0  0  0  0  0  0  0  0  0
   -5.2461   35.1576    5.3125 C   0  0  0  0  0  0  0  0  0  0  0  0
   -4.7424   33.4179   -1.7995 C   0  0  0  0  0  0  0  0  0  0  0  0
   -4.8529   31.2840    9.0549 S   0  0  0  0  0  0  0  0  0  0  0  0
   -3.9051   32.1383   10.9295 N   0  0  0  0  0  0  0  0  0  0  0  0
   -7.4796   34.1903    1.6777 C   0  0  0  0  0  0  0  0  0  0  0  0
   -6.8243   35.9262   -0.4211 O   0  0  0  0  0  0  0  0  0  0  0  0
   -3.9082   34.5297    7.1826 C   0  0  0  0  0  0  0  0  0  0  0  0
  1  7  1  0
  1 18  1  0
  1 29  2  0
  2  7  1  0
  2 22  1  0
  2 26  1  0
  3 10  1  0
  3 14  1  0
  3 28  2  0
  4 16  2  0
  4 20  1  0
  4 27  1  0
  5 14  1  0
  5 21  1  0
  6 10  1  0
  6 17  1  0
  6 19  1  0
  6 24  1  0
  7 25  1  0
  8 25  1  0
  8 26  1  0
  9 18  2  0
  9 23  1  0
 11 23  2  0
 11 29  1  0
 12 20  1  0
 12 23  1  0
 13 21  1  0
 14 27  1  0
 15 21  1  0
 15 27  1  0
M  END
$$$$

     RDKit          3D

 29 31  0  0  0  0  0  0  0  0999 V2000
   -3.9182   33.2372   10.0892 C   0  0  0  0  0  0  0  0  0  0  0  0
   -7.1286   34.7603   -0.7027 C   0  0  0  0  0  0  0  0  0  0  0  0
   -4.6817   33.6811    7.5586 C   0  0  0  0  0  0  0  0  0  0  0  0
   -5.4336   34.2663    2.0931 O   0  0  0  0  0  0  0  0  0  0  0  0
   -8.5291   32.0036    1.3352 C   0  0  0  0  0  0  0  0  0  0  0  0
   -5.7048   34.2588   -2.6962 C   0  0  0  0  0  0  0  0  0  0  0  0
   -7.7709   32.3293    0.1246 C   0  0  0  0  0  0  0  0  0  0  0  0
   -4.3881   31.1318   10.4810 C   0  0  0  0  0  0  0  0  0  0  0  0
   -7.8920   32.8956    2.4795 C   0  0  0  0  0  0  0  0  0  0  0  0
   -4.4547   32.9148    8.8098 C   0  0  0  0  0  0  0  0  0  0  0  0
   -5.1915   35.2307    5.2422 C   0  0  0  0  0  0  0  0  0  0  0  0
   -7.1140   34.2858   -2.1631 C   0  0  0  0  0  0  0  0  0  0  0  0
   -5.9036   33.5356    6.8933 C   0  0  0  0  0  0  0  0  0  0  0  0
   -6.5107   35.3531    3.4273 N   0  0  0  0  0  0  0  0  0  0  0  0
   -3.8441   34.6547    7.0203 C   0  0  0  0  0  0  0  0  0  0  0  0
   -5.1505   35.7688   -2.8587 C   0  0  0  0  0  0  0  0  0  0  0  0
   -5.7438   33.7061   -4.1122 C   0  0  0  0  0  0  0  0  0  0  0  0
   -7.4448   33.8214    0.2775 N   0  0  0  0  0  0  0  0  0  0  0  0
   -9.8906   32.4152    1.0865 O   0  0  0  0  0  0  0  0  0  0  0  0
   -7.5484   34.2151    1.7025 C   0  0  0  0  0  0  0  0  0  0  0  0
   -5.4478   35.9293    4.0560 C   0  0  0  0  0  0  0  0  0  0  0  0
   -4.7073   33.3878   -1.7721 C   0  0  0  0  0  0  0  0  0  0  0  0
   -3.4820   34.4168   10.0197 C   0  0  0  0  0  0  0  0  0  0  0  0
   -3.9407   32.2075   10.9775 N   0  0  0  0  0  0  0  0  0  0  0  0
   -4.9359   31.2080    8.9513 S   0  0  0  0  0  0  0  0  0  0  0  0
   -3.9947   35.4543    5.9116 C   0  0  0  0  0  0  0  0  0  0  0  0
   -6.2258   34.3737    5.7641 C   0  0  0  0  0  0  0  0  0  0  0  0
   -6.8342   35.8988   -0.4130 O   0  0  0  0  0  0  0  0  0  0  0  0
   -6.4824   34.6808    2.3972 C   0  0  0  0  0  0  0  0  0  0  0  0
  1 10  1  0
  1 23  1  0
  1 24  1  0
  2 12  1  0
  2 18  1  0
  2 28  2  0
  3 10  1  0
  3 13  2  0
  3 15  1  0
  4 29  2  0
  5  7  1  0
  5  9  1  0
  5 19  1  0
  6 12  1  0
  6 16  1  0
  6 17  1  0
  6 22  1  0
  7 18  1  0
  8 24  1  0
  8 25  1  0
  9 20  1  0
 10 25  1  0
 11 21  1  0
 11 26  1  0
 11 27  2  0
 13 27  1  0
 14 21  1  0
 14 29  1  0
 15 26  2  0
 18 20  1  0
 20 29  1  0
M  END
$$$$

     RDKit          3D

 28 30  0  0  0  0  0  0  0  0999 V2000
   -4.5423   32.7813    8.7773 C   0  0  0  0  0  0  0  0  0  0  0  0
   -4.4510   31.1292   10.3194 C   0  0  0  0  0  0  0  0  0  0  0  0
   -6.8091   35.7914   -0.5226 O   0  0  0  0  0  0  0  0  0  0  0  0
   -5.5243   34.3419    2.1572 O   0  0  0  0  0  0  0  0  0  0  0  0
   -7.8884   32.9941    2.4999 C   0  0  0  0  0  0  0  0  0  0  0  0
   -4.6360   33.7328    7.6312 C   0  0  0  0  0  0  0  0  0  0  0  0
   -5.3332   35.2441    5.1098 C   0  0  0  0  0  0  0  0  0  0  0  0
   -4.0186   33.1454    9.9370 C   0  0  0  0  0  0  0  0  0  0  0  0
   -8.5321   32.0294    1.2912 C   0  0  0  0  0  0  0  0  0  0  0  0
   -5.6482   34.2511   -2.7263 C   0  0  0  0  0  0  0  0  0  0  0  0
   -7.4431   34.2318    1.7759 C   0  0  0  0  0  0  0  0  0  0  0  0
   -7.7371   32.3293    0.0905 C   0  0  0  0  0  0  0  0  0  0  0  0
   -6.1696   34.2823    5.7454 C   0  0  0  0  0  0  0  0  0  0  0  0
   -5.7157   33.6603   -4.1219 C   0  0  0  0  0  0  0  0  0  0  0  0
   -7.4047   33.8427    0.3332 N   0  0  0  0  0  0  0  0  0  0  0  0
   -5.1305   35.7718   -2.8689 C   0  0  0  0  0  0  0  0  0  0  0  0
   -7.0750   34.2715   -2.1618 C   0  0  0  0  0  0  0  0  0  0  0  0
   -4.6614   33.3091   -1.7089 C   0  0  0  0  0  0  0  0  0  0  0  0
   -9.9137   32.4148    1.0462 O   0  0  0  0  0  0  0  0  0  0  0  0
   -3.5387   34.3896    9.8393 C   0  0  0  0  0  0  0  0  0  0  0  0
   -3.8318   34.7791    7.0176 C   0  0  0  0  0  0  0  0  0  0  0  0
   -5.7934   35.7949    3.8235 N   0  0  0  0  0  0  0  0  0  0  0  0
   -4.9058   31.3446    9.0146 O   0  0  0  0  0  0  0  0  0  0  0  0
   -5.8842   33.5319    6.9035 C   0  0  0  0  0  0  0  0  0  0  0  0
   -4.1600   35.4584    5.8534 C   0  0  0  0  0  0  0  0  0  0  0  0
   -7.0942   34.8309   -0.6794 C   0  0  0  0  0  0  0  0  0  0  0  0
   -3.8453   32.1214   10.8797 N   0  0  0  0  0  0  0  0  0  0  0  0
   -6.5705   34.9422    2.6097 C   0  0  0  0  0  0  0  0  0  0  0  0
  1  6  1  0
  1  8  1  0
  1 23  1  0
  2 23  1  0
  2 27  1  0
  3 26  2  0
  4 28  2  0
  5  9  1  0
  5 11  1  0
  6 21  1  0
  6 24  2  0
  7 13  2  0
  7 22  1  0
  7 25  1  0
  8 20  1  0
  8 27  1  0
  9 12  1  0
  9 19  1  0
 10 14  1  0
 10 16  1  0
 10 17  1  0
 10 18  1  0
 11 15  1  0
 11 28  1  0
 12 15  1  0
 13 24  1  0
 15 26  1  0
 17 26  1  0
 21 25  2  0
 22 28  1  0
M  END
$$$$

     RDKit          3D

 28 30  0  0  0  0  0  0  0  0999 V2000
   -4.5876   31.1929   10.0235 C   0  0  0  0  0  0  0  0  0  0  0  0
   -4.8651   31.5973    8.8272 O   0  0  0  0  0  0  0  0  0  0  0  0
   -6.8157   35.9308   -0.4553 O   0  0  0  0  0  0  0  0  0  0  0  0
   -4.6819   33.7307    7.5704 C   0  0  0  0  0  0  0  0  0  0  0  0
   -5.3558   35.2202    5.0608 C   0  0  0  0  0  0  0  0  0  0  0  0
   -4.0367   33.2603    9.8648 C   0  0  0  0  0  0  0  0  0  0  0  0
   -7.4520   34.2513    1.8054 C   0  0  0  0  0  0  0  0  0  0  0  0
   -8.5404   31.9946    1.2590 C   0  0  0  0  0  0  0  0  0  0  0  0
   -5.9490   33.5194    6.8409 C   0  0  0  0  0  0  0  0  0  0  0  0
   -7.7247   32.3191    0.1069 C   0  0  0  0  0  0  0  0  0  0  0  0
   -7.1098   34.3057   -2.1854 C   0  0  0  0  0  0  0  0  0  0  0  0
   -5.6733   34.3003   -2.7220 C   0  0  0  0  0  0  0  0  0  0  0  0
   -7.3818   33.8476    0.3653 N   0  0  0  0  0  0  0  0  0  0  0  0
   -5.7211   33.6865   -4.1262 C   0  0  0  0  0  0  0  0  0  0  0  0
   -3.8503   34.6979    6.9635 C   0  0  0  0  0  0  0  0  0  0  0  0
   -5.1301   35.8142   -2.8722 C   0  0  0  0  0  0  0  0  0  0  0  0
   -9.9169   32.4016    1.0467 O   0  0  0  0  0  0  0  0  0  0  0  0
   -5.8618   35.7938    3.7847 N   0  0  0  0  0  0  0  0  0  0  0  0
   -7.8809   32.8992    2.3372 C   0  0  0  0  0  0  0  0  0  0  0  0
   -4.6855   33.3901   -1.7761 C   0  0  0  0  0  0  0  0  0  0  0  0
   -3.4727   34.6465   10.2057 C   0  0  0  0  0  0  0  0  0  0  0  0
   -4.1391   35.4494    5.7745 C   0  0  0  0  0  0  0  0  0  0  0  0
   -4.0743   32.0427   10.7521 N   0  0  0  0  0  0  0  0  0  0  0  0
   -6.2453   34.2716    5.7161 C   0  0  0  0  0  0  0  0  0  0  0  0
   -4.4638   33.0070    8.7231 C   0  0  0  0  0  0  0  0  0  0  0  0
   -7.1075   34.8357   -0.6956 C   0  0  0  0  0  0  0  0  0  0  0  0
   -6.4194   34.8936    2.5800 C   0  0  0  0  0  0  0  0  0  0  0  0
   -5.3914   34.3407    2.1179 O   0  0  0  0  0  0  0  0  0  0  0  0
  1  2  1  0
  1 23  1  0
  2 25  1  0
  3 26  2  0
  4  9  2  0
  4 15  1  0
  4 25  1  0
  5 18  1  0
  5 22  1  0
  5 24  2  0
  6 21  1  0
  6 23  1  0
  6 25  1  0
  7 13  1  0
  7 19  1  0
  7 27  1  0
  8 10  1  0
  8 17  1  0
  8 19  1  0
  9 24  1  0
 10 13  1  0
 11 12  1  0
 11 26  1  0
 12 14  1  0
 12 16  1  0
 12 20  1  0
 13 26  1  0
 15 22  2  0
 18 27  1  0
 27 28  2  0
M  END
$$$$

     RDKit          3D

 28 30  0  0  0  0  0  0  0  0999 V2000
   -4.8151   33.6584    7.6380 C   0  0  0  0  0  0  0  0  0  0  0  0
   -3.9982   32.3095   10.7622 N   0  0  0  0  0  0  0  0  0  0  0  0
   -6.8133   35.8948   -0.4465 O   0  0  0  0  0  0  0  0  0  0  0  0
   -3.9752   33.3369    9.8186 C   0  0  0  0  0  0  0  0  0  0  0  0
   -7.4334   34.1946    1.7190 C   0  0  0  0  0  0  0  0  0  0  0  0
   -7.7758   32.3714    0.1188 C   0  0  0  0  0  0  0  0  0  0  0  0
   -5.6893   34.2779   -2.7033 C   0  0  0  0  0  0  0  0  0  0  0  0
   -4.1639   35.2704    6.1444 C   0  0  0  0  0  0  0  0  0  0  0  0
   -6.2284   34.2692    5.8065 C   0  0  0  0  0  0  0  0  0  0  0  0
   -5.5411   34.4208    2.1679 O   0  0  0  0  0  0  0  0  0  0  0  0
   -8.5381   32.0367    1.3195 C   0  0  0  0  0  0  0  0  0  0  0  0
   -7.1057   34.2963   -2.1468 C   0  0  0  0  0  0  0  0  0  0  0  0
   -7.8551   32.9746    2.4121 C   0  0  0  0  0  0  0  0  0  0  0  0
   -5.7308   33.7058   -4.1040 C   0  0  0  0  0  0  0  0  0  0  0  0
   -7.4552   33.8861    0.3951 N   0  0  0  0  0  0  0  0  0  0  0  0
   -5.1389   35.7861   -2.8482 C   0  0  0  0  0  0  0  0  0  0  0  0
   -9.9057   32.4202    1.0578 O   0  0  0  0  0  0  0  0  0  0  0  0
   -5.0393   31.1705    8.9129 S   0  0  0  0  0  0  0  0  0  0  0  0
   -5.3041   35.2081    5.3195 C   0  0  0  0  0  0  0  0  0  0  0  0
   -5.9704   33.4453    6.9169 C   0  0  0  0  0  0  0  0  0  0  0  0
   -3.4428   34.7325   10.1675 C   0  0  0  0  0  0  0  0  0  0  0  0
   -4.4522   31.1691   10.3946 C   0  0  0  0  0  0  0  0  0  0  0  0
   -4.6195   32.8835    8.7000 C   0  0  0  0  0  0  0  0  0  0  0  0
   -4.7004   33.3864   -1.7725 C   0  0  0  0  0  0  0  0  0  0  0  0
   -3.9403   34.5355    7.2555 C   0  0  0  0  0  0  0  0  0  0  0  0
   -5.5008   35.9790    4.1398 N   0  0  0  0  0  0  0  0  0  0  0  0
   -7.1061   34.8474   -0.6601 C   0  0  0  0  0  0  0  0  0  0  0  0
   -6.6782   34.8826    2.4229 C   0  0  0  0  0  0  0  0  0  0  0  0
  1 20  1  0
  1 23  1  0
  1 25  2  0
  2  4  1  0
  2 22  1  0
  3 27  2  0
  4 21  1  0
  4 23  1  0
  5 13  1  0
  5 15  1  0
  5 28  1  0
  6 11  1  0
  6 15  1  0
  7 12  1  0
  7 14  1  0
  7 16  1  0
  7 24  1  0
  8 19  2  0
  8 25  1  0
  9 19  1  0
  9 20  2  0
 10 28  2  0
 11 13  1  0
 11 17  1  0
 12 27  1  0
 15 27  1  0
 18 22  1  0
 18 23  1  0
 19 26  1  0
 26 28  1  0
M  END
$$$$
