
     RDKit          3D

 23 24  0  0  0  0  0  0  0  0999 V2000
    3.4792   55.5920   20.6735 C   0  0  0  0  0  0  0  0  0  0  0  0
    4.9578   58.4924   23.9221 C   0  0  0  0  0  0  0  0  0  0  0  0
    1.2951   51.8935   22.9142 C   0  0  0  0  0  0  0  0  0  0  0  0
    5.8810   59.9438   22.2465 C   0  0  0  0  0  0  0  0  0  0  0  0
    6.8059   60.8535   21.9041 F   0  0  0  0  0  0  0  0  0  0  0  0
    2.4808   53.7093   21.8727 C   0  0  0  0  0  0  0  0  0  0  0  0
    3.9500   58.5921   21.6975 C   0  0  0  0  0  0  0  0  0  0  0  0
    1.4506   52.0692   24.4286 C   0  0  0  0  0  0  0  0  0  0  0  0
    4.7498   55.0754   20.9524 C   0  0  0  0  0  0  0  0  0  0  0  0
    2.3528   54.8975   21.1454 C   0  0  0  0  0  0  0  0  0  0  0  0
    2.8773   58.0777   20.7579 C   0  0  0  0  0  0  0  0  0  0  0  0
    4.8852   53.8940   21.6809 C   0  0  0  0  0  0  0  0  0  0  0  0
    0.0419   51.2698   22.6412 O   0  0  0  0  0  0  0  0  0  0  0  0
    4.9537   60.1724   19.9342 C   0  0  0  0  0  0  0  0  0  0  0  0
    1.2925   53.1594   22.2626 O   0  0  0  0  0  0  0  0  0  0  0  0
    3.9870   58.0788   23.0094 C   0  0  0  0  0  0  0  0  0  0  0  0
    2.3851   56.6980   18.8378 O   0  0  0  0  0  0  0  0  0  0  0  0
    1.4814   50.7395   25.1668 C   0  0  0  0  0  0  0  0  0  0  0  0
    5.9082   59.4300   23.5383 C   0  0  0  0  0  0  0  0  0  0  0  0
    3.3316   56.8851   19.8965 C   0  0  0  0  0  0  0  0  0  0  0  0
    4.9204   59.5395   21.3054 C   0  0  0  0  0  0  0  0  0  0  0  0
    4.1719   61.4775   19.8921 C   0  0  0  0  0  0  0  0  0  0  0  0
    3.7550   53.2121   22.1402 C   0  0  0  0  0  0  0  0  0  0  0  0
  1  9  4  0
  1 10  4  0
  1 20  1  0
  2 16  4  0
  2 19  4  0
  3  8  1  0
  3 13  1  0
  3 15  1  0
  4  5  1  0
  4 19  4  0
  4 21  4  0
  6 10  4  0
  6 15  1  0
  6 23  4  0
  7 11  1  0
  7 16  4  0
  7 21  4  0
  8 18  1  0
  9 12  4  0
 11 20  1  0
 12 23  4  0
 14 21  1  0
 14 22  1  0
 17 20  1  0
M  END
>  <zinc_id>  (1) 


$$$$
