
     RDKit          3D

 22 23  0  0  0  0  0  0  0  0999 V2000
    3.0885   54.9951   19.7652 C   0  0  0  0  0  0  0  0  0  0  0  0
    1.8390   52.9510   23.9001 C   0  0  0  0  0  0  0  0  0  0  0  0
    4.5402   58.6627   21.0700 C   0  0  0  0  0  0  0  0  0  0  0  0
    5.6242   56.7063   21.9848 C   0  0  0  0  0  0  0  0  0  0  0  0
    3.9359   60.5604   22.5265 N   0  0  0  0  0  0  0  0  0  0  0  0
    2.7368   54.1542   22.0497 C   0  0  0  0  0  0  0  0  0  0  0  0
    5.0350   58.5646   23.4130 C   0  0  0  0  0  0  0  0  0  0  0  0
    4.0004   53.8036   20.0533 C   0  0  0  0  0  0  0  0  0  0  0  0
    4.1068   61.5452   21.4585 C   0  0  0  0  0  0  0  0  0  0  0  0
    4.5111   59.2855   22.3290 C   0  0  0  0  0  0  0  0  0  0  0  0
    3.7400   56.1634   19.0056 C   0  0  0  0  0  0  0  0  0  0  0  0
    1.5749   53.7923   22.7851 O   0  0  0  0  0  0  0  0  0  0  0  0
    3.2431   53.0457   21.1310 C   0  0  0  0  0  0  0  0  0  0  0  0
    2.7831   57.2082   18.8086 O   0  0  0  0  0  0  0  0  0  0  0  0
    0.8099   52.1558   26.0797 C   0  0  0  0  0  0  0  0  0  0  0  0
    2.0750   51.6274   23.4578 O   0  0  0  0  0  0  0  0  0  0  0  0
    4.0415   61.1647   23.7843 O   0  0  0  0  0  0  0  0  0  0  0  0
    5.5956   57.2957   23.2450 C   0  0  0  0  0  0  0  0  0  0  0  0
    0.6206   52.9927   24.8242 C   0  0  0  0  0  0  0  0  0  0  0  0
    2.3944   55.3122   21.1011 C   0  0  0  0  0  0  0  0  0  0  0  0
    5.0794   57.3752   20.8851 C   0  0  0  0  0  0  0  0  0  0  0  0
    5.0797   56.7378   19.5159 C   0  0  0  0  0  0  0  0  0  0  0  0
  1  8  1  0
  1 11  1  0
  1 20  1  0
  2 12  1  0
  2 16  1  0
  2 19  1  0
  3 10  4  0
  3 21  4  0
  4 18  4  0
  4 21  4  0
  5  9  1  0
  5 10  1  0
  5 17  1  0
  6 12  1  0
  6 13  1  0
  6 20  1  0
  7 10  4  0
  7 18  4  0
  8 13  1  0
 11 14  1  0
 11 22  1  0
 15 19  1  0
 21 22  1  0
M  END
>  <zinc_id>  (1) 


$$$$
