MODEL 1
REMARK VINA RESULT:      -7.7      0.000      0.000
REMARK  Name = 
REMARK  12 active torsions:
REMARK  status: ('A' for Active; 'I' for Inactive)
REMARK    1  A    between atoms: O_2  and  C_6
REMARK    2  A    between atoms: O_2  and  C_22
REMARK    3  A    between atoms: C_4  and  C_13
REMARK    4  A    between atoms: C_6  and  O_16
REMARK    5  A    between atoms: C_6  and  C_20
REMARK    6  A    between atoms: O_7  and  N_21
REMARK    7  A    between atoms: C_8  and  O_12
REMARK    8  A    between atoms: C_8  and  C_13
REMARK    9  A    between atoms: C_8  and  C_18
REMARK   10  A    between atoms: C_9  and  N_21
REMARK   11  A    between atoms: C_14  and  C_20
REMARK   12  A    between atoms: C_15  and  N_21
REMARK                            x       y       z     vdW  Elec       q    Type
REMARK                         _______ _______ _______ _____ _____    ______ ____
ROOT
ATOM      1  C   UNL     1       5.723  61.004  21.952  0.00  0.00    +0.000 C 
ENDROOT
BRANCH   1   5
ATOM      2  C   UNL     1       6.675  60.565  19.542  0.00  0.00    +0.000 C 
ATOM      3  N   UNL     1       7.478  62.771  19.137  0.00  0.00    +0.000 N 
ATOM      4  C   UNL     1       6.978  62.751  20.517  0.00  0.00    +0.000 C 
ATOM      5  C   UNL     1       6.061  61.538  20.551  0.00  0.00    +0.000 C 
ATOM      6  C   UNL     1       7.770  61.367  18.838  0.00  0.00    +0.000 C 
ATOM      7  H   UNL     1       8.323  63.339  19.068  0.00  0.00    +0.000 HD
ATOM      8  H   UNL     1       6.807  63.179  18.486  0.00  0.00    +0.000 HD
BRANCH   6   9
ATOM      9  O   UNL     1       7.713  61.126  17.446  0.00  0.00    +0.000 OA
BRANCH   9  10
ATOM     10  C   UNL     1       8.937  60.628  16.918  0.00  0.00    +0.000 C 
BRANCH  10  12
ATOM     11  C   UNL     1       7.330  58.889  16.002  0.00  0.00    +0.000 C 
ATOM     12  C   UNL     1       8.721  59.159  16.556  0.00  0.00    +0.000 C 
ENDBRANCH  10  12
BRANCH  10  13
ATOM     13  O   UNL     1       9.281  61.341  15.743  0.00  0.00    +0.000 OA
ATOM     14  H   UNL     1      10.075  61.872  15.908  0.00  0.00    +0.000 HD
ENDBRANCH  10  13
ENDBRANCH   9  10
ENDBRANCH   6   9
ENDBRANCH   1   5
BRANCH   1  15
ATOM     15  O   UNL     1       5.868  62.051  22.917  0.00  0.00    +0.000 OA
ATOM     16  H   UNL     1       6.799  62.117  23.186  0.00  0.00    +0.000 HD
ENDBRANCH   1  15
BRANCH   1  17
ATOM     17  C   UNL     1       4.400  60.239  22.171  0.00  0.00    +0.000 C 
BRANCH  17  18
ATOM     18  C   UNL     1       4.402  58.758  21.874  0.00  0.00    +0.000 A 
ATOM     19  C   UNL     1       4.436  56.028  21.284  0.00  0.00    +0.000 A 
ATOM     20  C   UNL     1       4.017  56.920  20.284  0.00  0.00    +0.000 A 
ATOM     21  C   UNL     1       4.776  57.834  22.854  0.00  0.00    +0.000 A 
ATOM     22  C   UNL     1       4.800  56.475  22.556  0.00  0.00    +0.000 A 
ATOM     23  C   UNL     1       4.015  58.287  20.605  0.00  0.00    +0.000 A 
BRANCH  20  25
ATOM     24  C   UNL     1       2.549  55.506  18.917  0.00  0.00    +0.000 C 
ATOM     25  N   UNL     1       3.668  56.445  19.001  0.00  0.00    +0.000 N 
BRANCH  25  26
ATOM     26  O   UNL     1       4.686  56.089  18.109  0.00  0.00    +0.000 OA
ATOM     27  H   UNL     1       4.337  56.087  17.204  0.00  0.00    +0.000 HD
ENDBRANCH  25  26
ENDBRANCH  20  25
ENDBRANCH  17  18
ENDBRANCH   1  17
TORSDOF 10
ENDMDL

MODEL 2
REMARK VINA RESULT:      -7.1      0.000      0.000
REMARK  Name = 
REMARK  10 active torsions:
REMARK  status: ('A' for Active; 'I' for Inactive)
REMARK    1  A    between atoms: C_1  and  C_3
REMARK    2  A    between atoms: C_1  and  O_5
REMARK    3  A    between atoms: C_1  and  N_18
REMARK    4  A    between atoms: O_2  and  C_13
REMARK    5  A    between atoms: O_2  and  C_15
REMARK    6  A    between atoms: C_6  and  C_11
REMARK    7  A    between atoms: C_6  and  C_20
REMARK    8  A    between atoms: C_9  and  C_15
REMARK    9  A    between atoms: C_11  and  C_12
REMARK   10  A    between atoms: C_11  and  O_19
REMARK                            x       y       z     vdW  Elec       q    Type
REMARK                         _______ _______ _______ _____ _____    ______ ____
ROOT
ATOM      1  C   UNL     1       8.270  60.781  18.096  0.00  0.00    +0.000 A 
ATOM      2  C   UNL     1       8.025  62.081  18.562  0.00  0.00    +0.000 A 
ATOM      3  C   UNL     1       6.819  61.206  20.466  0.00  0.00    +0.000 A 
ATOM      4  C   UNL     1       7.777  59.697  18.843  0.00  0.00    +0.000 A 
ATOM      5  C   UNL     1       7.306  62.292  19.739  0.00  0.00    +0.000 A 
ATOM      6  C   UNL     1       7.037  59.897  20.020  0.00  0.00    +0.000 A 
ENDROOT
BRANCH   1   7
ATOM      7  C   UNL     1       9.090  60.526  16.852  0.00  0.00    +0.000 C 
BRANCH   7   8
ATOM      8  N   UNL     1       9.113  61.678  15.983  0.00  0.00    +0.000 N 
ATOM      9  H   UNL     1       8.720  61.427  15.076  0.00  0.00    +0.000 HD
ATOM     10  H   UNL     1      10.074  61.994  15.861  0.00  0.00    +0.000 HD
ATOM     11  H   UNL     1       8.557  62.427  16.397  0.00  0.00    +0.000 HD
ENDBRANCH   7   8
BRANCH   7  12
ATOM     12  O   UNL     1       8.555  59.472  16.092  0.00  0.00    +0.000 OA
ATOM     13  H   UNL     1       7.588  59.550  16.066  0.00  0.00    +0.000 HD
ENDBRANCH   7  12
ENDBRANCH   1   7
BRANCH   6  14
ATOM     14  C   UNL     1       6.504  58.718  20.797  0.00  0.00    +0.000 C 
BRANCH  14  15
ATOM     15  C   UNL     1       5.060  58.827  21.334  0.00  0.00    +0.000 C 
BRANCH  15  18
ATOM     16  C   UNL     1       3.744  57.135  19.877  0.00  0.00    +0.000 C 
ATOM     17  C   UNL     1       4.620  56.321  22.001  0.00  0.00    +0.000 C 
ATOM     18  C   UNL     1       4.144  57.593  21.278  0.00  0.00    +0.000 C 
ATOM     19  C   UNL     1       3.217  55.722  20.109  0.00  0.00    +0.000 C 
ATOM     20  C   UNL     1       4.226  55.151  21.102  0.00  0.00    +0.000 C 
BRANCH  19  21
ATOM     21  O   UNL     1       3.190  55.021  18.876  0.00  0.00    +0.000 OA
BRANCH  21  23
ATOM     22  C   UNL     1       1.065  54.123  19.482  0.00  0.00    +0.000 C 
ATOM     23  C   UNL     1       1.868  54.800  18.388  0.00  0.00    +0.000 C 
ENDBRANCH  21  23
ENDBRANCH  19  21
ENDBRANCH  15  18
BRANCH  15  24
ATOM     24  O   UNL     1       5.051  59.373  22.656  0.00  0.00    +0.000 OA
ATOM     25  H   UNL     1       4.400  60.090  22.706  0.00  0.00    +0.000 HD
ENDBRANCH  15  24
ENDBRANCH  14  15
ENDBRANCH   6  14
TORSDOF 9
ENDMDL

