
     RDKit          3D

 22 23  0  0  0  0  0  0  0  0999 V2000
    2.3863   55.3818   21.0888 C   0  0  0  0  0  0  0  0  0  0  0  0
    1.5668   53.8391   22.7423 O   0  0  0  0  0  0  0  0  0  0  0  0
    3.2023   53.1450   21.1707 N   0  0  0  0  0  0  0  0  0  0  0  0
    5.1286   57.3515   20.9037 C   0  0  0  0  0  0  0  0  0  0  0  0
    5.0659   58.5532   23.4255 C   0  0  0  0  0  0  0  0  0  0  0  0
    1.8441   52.9316   23.8026 C   0  0  0  0  0  0  0  0  0  0  0  0
    4.1192   61.1727   23.7698 O   0  0  0  0  0  0  0  0  0  0  0  0
    3.7905   56.1635   19.0091 C   0  0  0  0  0  0  0  0  0  0  0  0
    4.5758   59.2797   22.3295 C   0  0  0  0  0  0  0  0  0  0  0  0
    5.6425   56.6773   22.0152 C   0  0  0  0  0  0  0  0  0  0  0  0
    3.9517   53.8292   20.1102 C   0  0  0  0  0  0  0  0  0  0  0  0
    2.8715   57.2333   18.7694 O   0  0  0  0  0  0  0  0  0  0  0  0
    5.1363   56.7068   19.5383 C   0  0  0  0  0  0  0  0  0  0  0  0
    0.8241   52.0164   25.9386 C   0  0  0  0  0  0  0  0  0  0  0  0
    4.2393   61.5451   21.4454 C   0  0  0  0  0  0  0  0  0  0  0  0
    2.0443   51.6286   23.2830 O   0  0  0  0  0  0  0  0  0  0  0  0
    5.6045   57.2731   23.2723 C   0  0  0  0  0  0  0  0  0  0  0  0
    3.0844   55.0325   19.7727 C   0  0  0  0  0  0  0  0  0  0  0  0
    4.6140   58.6510   21.0738 C   0  0  0  0  0  0  0  0  0  0  0  0
    0.6259   52.9117   24.7250 C   0  0  0  0  0  0  0  0  0  0  0  0
    4.0235   60.5669   22.5118 N   0  0  0  0  0  0  0  0  0  0  0  0
    2.7266   54.2295   22.0337 C   0  0  0  0  0  0  0  0  0  0  0  0
  1 18  1  0
  1 22  1  0
  2  6  1  0
  2 22  1  0
  3 11  1  0
  3 22  1  0
  4 10  4  0
  4 13  1  0
  4 19  4  0
  5  9  4  0
  5 17  4  0
  6 16  1  0
  6 20  1  0
  7 21  1  0
  8 12  1  0
  8 13  1  0
  8 18  1  0
  9 19  4  0
  9 21  1  0
 10 17  4  0
 11 18  1  0
 14 20  1  0
 15 21  1  0
M  END
>  <zinc_id>  (1) 


$$$$

     RDKit          3D

 20 21  0  0  0  0  0  0  0  0999 V2000
    4.5609   60.9443   21.8000 C   0  0  0  0  0  0  0  0  0  0  0  0
    2.5843   52.6008   23.0175 O   0  0  0  0  0  0  0  0  0  0  0  0
    4.6855   59.4773   22.1403 C   0  0  0  0  0  0  0  0  0  0  0  0
    3.3246   53.7405   21.0342 C   0  0  0  0  0  0  0  0  0  0  0  0
    3.7863   61.6272   22.7529 O   0  0  0  0  0  0  0  0  0  0  0  0
    5.2078   56.1712   20.2771 C   0  0  0  0  0  0  0  0  0  0  0  0
    4.6712   59.0255   23.4679 C   0  0  0  0  0  0  0  0  0  0  0  0
    1.9407   55.7378   21.2139 C   0  0  0  0  0  0  0  0  0  0  0  0
    2.0900   51.2107   24.8912 C   0  0  0  0  0  0  0  0  0  0  0  0
    5.0164   56.7488   22.7329 C   0  0  0  0  0  0  0  0  0  0  0  0
    3.9411   55.7411   19.5059 C   0  0  0  0  0  0  0  0  0  0  0  0
    2.8444   54.9560   20.2451 C   0  0  0  0  0  0  0  0  0  0  0  0
    2.1467   53.4315   21.9518 C   0  0  0  0  0  0  0  0  0  0  0  0
    4.8740   58.5349   21.1144 C   0  0  0  0  0  0  0  0  0  0  0  0
    1.5132   52.1295   23.8321 C   0  0  0  0  0  0  0  0  0  0  0  0
    1.7141   54.8198   22.4144 C   0  0  0  0  0  0  0  0  0  0  0  0
    4.8359   57.6721   23.7618 C   0  0  0  0  0  0  0  0  0  0  0  0
    5.8471   61.5985   21.7825 N   0  0  0  0  0  0  0  0  0  0  0  0
    3.3588   56.8570   18.8256 O   0  0  0  0  0  0  0  0  0  0  0  0
    5.0244   57.1674   21.3971 C   0  0  0  0  0  0  0  0  0  0  0  0
  1  3  1  0
  1  5  1  0
  1 18  1  0
  2 13  1  0
  2 15  1  0
  3  7  4  0
  3 14  4  0
  4 12  1  0
  4 13  1  0
  6 11  1  0
  6 20  1  0
  7 17  4  0
  8 12  1  0
  8 16  1  0
  9 15  1  0
 10 17  4  0
 10 20  4  0
 11 12  1  0
 11 19  1  0
 13 16  1  0
 14 20  4  0
M  END
>  <zinc_id>  (1) 


$$$$
