=
 OpenBabel12172413153D

 27 28  0  0  1  0  0  0  0  0999 V2000
    5.7230   61.0040   21.9520 C   0  0  1  0  0  3  0  0  0  0  0  0
    6.6750   60.5650   19.5420 C   0  0  0  0  0  2  0  0  0  0  0  0
    7.4780   62.7710   19.1370 N   0  0  0  0  0  4  0  0  0  0  0  0
    6.9780   62.7510   20.5170 C   0  0  0  0  0  2  0  0  0  0  0  0
    6.0610   61.5380   20.5510 C   0  0  2  0  0  3  0  0  0  0  0  0
    7.7700   61.3670   18.8380 C   0  0  2  0  0  3  0  0  0  0  0  0
    8.3230   63.3390   19.0680 H   0  0  0  0  0  0  0  0  0  0  0  0
    6.8070   63.1790   18.4860 H   0  0  0  0  0  0  0  0  0  0  0  0
    7.7130   61.1260   17.4460 O   0  0  0  0  0  0  0  0  0  0  0  0
    8.9370   60.6280   16.9180 C   0  0  1  0  0  3  0  0  0  0  0  0
    7.3300   58.8890   16.0020 C   0  0  0  0  0  1  0  0  0  0  0  0
    8.7210   59.1590   16.5560 C   0  0  0  0  0  2  0  0  0  0  0  0
    9.2810   61.3410   15.7430 O   0  0  0  0  0  0  0  0  0  0  0  0
   10.0750   61.8720   15.9080 H   0  0  0  0  0  0  0  0  0  0  0  0
    5.8680   62.0510   22.9170 O   0  0  0  0  0  0  0  0  0  0  0  0
    6.7990   62.1170   23.1860 H   0  0  0  0  0  0  0  0  0  0  0  0
    4.4000   60.2390   22.1710 C   0  0  0  0  0  2  0  0  0  0  0  0
    4.4020   58.7580   21.8740 C   0  0  0  0  0  0  0  0  0  0  0  0
    4.4360   56.0280   21.2840 C   0  0  0  0  0  3  0  0  0  0  0  0
    4.0170   56.9200   20.2840 C   0  0  0  0  0  0  0  0  0  0  0  0
    4.7760   57.8340   22.8540 C   0  0  0  0  0  3  0  0  0  0  0  0
    4.8000   56.4750   22.5560 C   0  0  0  0  0  3  0  0  0  0  0  0
    4.0150   58.2870   20.6050 C   0  0  0  0  0  3  0  0  0  0  0  0
    2.5490   55.5060   18.9170 C   0  0  0  0  0  1  0  0  0  0  0  0
    3.6680   56.4450   19.0010 N   0  0  0  0  0  0  0  0  0  0  0  0
    4.6860   56.0890   18.1090 O   0  0  0  0  0  0  0  0  0  0  0  0
    4.3370   56.0870   17.2040 H   0  0  0  0  0  0  0  0  0  0  0  0
  1 17  1  6  0  0  0
  1 15  1  0  0  0  0
  2  5  1  0  0  0  0
  3  4  1  0  0  0  0
  4  5  1  0  0  0  0
  5  1  1  1  0  0  0
  6  9  1  6  0  0  0
  6  3  1  0  0  0  0
  6  2  1  0  0  0  0
  7  3  1  0  0  0  0
  8  3  1  0  0  0  0
 10 12  1  6  0  0  0
 10  9  1  0  0  0  0
 11 12  1  0  0  0  0
 13 14  1  0  0  0  0
 13 10  1  0  0  0  0
 15 16  1  0  0  0  0
 18 17  1  0  0  0  0
 18 21  1  0  0  0  0
 19 22  1  0  0  0  0
 20 23  1  0  0  0  0
 20 19  2  0  0  0  0
 22 21  2  0  0  0  0
 23 18  2  0  0  0  0
 24 25  1  0  0  0  0
 25 20  1  0  0  0  0
 26 25  1  0  0  0  0
 27 26  1  0  0  0  0
M  END
>  <MODEL>
1

>  <REMARK>
 VINA RESULT:      -7.7      0.000      0.000
  Name = 
  12 active torsions:
  status: ('A' for Active; 'I' for Inactive)
    1  A    between atoms: O_2  and  C_6
    2  A    between atoms: O_2  and  C_22
    3  A    between atoms: C_4  and  C_13
    4  A    between atoms: C_6  and  O_16
    5  A    between atoms: C_6  and  C_20
    6  A    between atoms: O_7  and  N_21
    7  A    between atoms: C_8  and  O_12
    8  A    between atoms: C_8  and  C_13
    9  A    between atoms: C_8  and  C_18
   10  A    between atoms: C_9  and  N_21
   11  A    between atoms: C_14  and  C_20
   12  A    between atoms: C_15  and  N_21
                            x       y       z     vdW  Elec       q    Type
                         _______ _______ _______ _____ _____    ______ ____

>  <TORSDO>
F 10

$$$$
=
 OpenBabel12172413163D

 25 26  0  0  1  0  0  0  0  0999 V2000
    8.2700   60.7810   18.0960 C   0  0  0  0  0  0  0  0  0  0  0  0
    8.0250   62.0810   18.5620 C   0  0  0  0  0  3  0  0  0  0  0  0
    6.8190   61.2060   20.4660 C   0  0  0  0  0  3  0  0  0  0  0  0
    7.7770   59.6970   18.8430 C   0  0  0  0  0  3  0  0  0  0  0  0
    7.3060   62.2920   19.7390 C   0  0  0  0  0  3  0  0  0  0  0  0
    7.0370   59.8970   20.0200 C   0  0  0  0  0  0  0  0  0  0  0  0
    9.0900   60.5260   16.8520 C   0  0  2  0  0  3  0  0  0  0  0  0
    9.1130   61.6780   15.9830 N   0  0  0  0  0  4  0  0  0  0  0  0
    8.7200   61.4270   15.0760 H   0  0  0  0  0  0  0  0  0  0  0  0
   10.0740   61.9940   15.8610 H   0  0  0  0  0  0  0  0  0  0  0  0
    8.5570   62.4270   16.3970 H   0  0  0  0  0  0  0  0  0  0  0  0
    8.5550   59.4720   16.0920 O   0  0  0  0  0  0  0  0  0  0  0  0
    7.5880   59.5500   16.0660 H   0  0  0  0  0  0  0  0  0  0  0  0
    6.5040   58.7180   20.7970 C   0  0  0  0  0  2  0  0  0  0  0  0
    5.0600   58.8270   21.3340 C   0  0  1  0  0  3  0  0  0  0  0  0
    3.7440   57.1350   19.8770 C   0  0  0  0  0  2  0  0  0  0  0  0
    4.6200   56.3210   22.0010 C   0  0  0  0  0  2  0  0  0  0  0  0
    4.1440   57.5930   21.2780 C   0  0  1  0  0  3  0  0  0  0  0  0
    3.2170   55.7220   20.1090 C   0  0  2  0  0  3  0  0  0  0  0  0
    4.2260   55.1510   21.1020 C   0  0  0  0  0  2  0  0  0  0  0  0
    3.1900   55.0210   18.8760 O   0  0  0  0  0  0  0  0  0  0  0  0
    1.0650   54.1230   19.4820 C   0  0  0  0  0  1  0  0  0  0  0  0
    1.8680   54.8000   18.3880 C   0  0  0  0  0  2  0  0  0  0  0  0
    5.0510   59.3730   22.6560 O   0  0  0  0  0  0  0  0  0  0  0  0
    4.4000   60.0900   22.7060 H   0  0  0  0  0  0  0  0  0  0  0  0
  1  2  2  0  0  0  0
  1  4  1  0  0  0  0
  2  5  1  0  0  0  0
  4  6  2  0  0  0  0
  5  3  2  0  0  0  0
  6  3  1  0  0  0  0
  6 14  1  0  0  0  0
  7 12  1  6  0  0  0
  7  1  1  0  0  0  0
  8 11  1  0  0  0  0
  8  7  1  0  0  0  0
  9  8  1  0  0  0  0
 10  8  1  0  0  0  0
 13 12  1  0  0  0  0
 15 14  1  1  0  0  0
 15 24  1  0  0  0  0
 16 19  1  0  0  0  0
 16 18  1  0  0  0  0
 18 15  1  6  0  0  0
 18 17  1  0  0  0  0
 19 21  1  6  0  0  0
 19 20  1  0  0  0  0
 20 17  1  0  0  0  0
 23 21  1  0  0  0  0
 23 22  1  0  0  0  0
 24 25  1  0  0  0  0
M  END
>  <MODEL>
1

>  <REMARK>
 VINA RESULT:      -7.1      0.000      0.000
  Name = 
  10 active torsions:
  status: ('A' for Active; 'I' for Inactive)
    1  A    between atoms: C_1  and  C_3
    2  A    between atoms: C_1  and  O_5
    3  A    between atoms: C_1  and  N_18
    4  A    between atoms: O_2  and  C_13
    5  A    between atoms: O_2  and  C_15
    6  A    between atoms: C_6  and  C_11
    7  A    between atoms: C_6  and  C_20
    8  A    between atoms: C_9  and  C_15
    9  A    between atoms: C_11  and  C_12
   10  A    between atoms: C_11  and  O_19
                            x       y       z     vdW  Elec       q    Type
                         _______ _______ _______ _____ _____    ______ ____

>  <TORSDO>
F 9

$$$$
