MODEL 1
REMARK VINA RESULT:      -7.5      0.000      0.000
REMARK  Name = 
REMARK  10 active torsions:
REMARK  status: ('A' for Active; 'I' for Inactive)
REMARK    1  A    between atoms: C_1  and  C_12
REMARK    2  A    between atoms: C_2  and  C_13
REMARK    3  A    between atoms: C_2  and  C_20
REMARK    4  A    between atoms: C_3  and  C_17
REMARK    5  A    between atoms: C_4  and  O_10
REMARK    6  A    between atoms: O_6  and  C_20
REMARK    7  A    between atoms: O_10  and  C_20
REMARK    8  A    between atoms: C_12  and  C_22
REMARK    9  A    between atoms: C_14  and  C_22
REMARK   10  A    between atoms: O_15  and  C_22
REMARK                            x       y       z     vdW  Elec       q    Type
REMARK                         _______ _______ _______ _____ _____    ______ ____
ROOT
ATOM      1  C   UNL     1       7.710  61.151  18.795  0.00  0.00    +0.000 C 
ATOM      2  C   UNL     1       7.058  62.742  20.344  0.00  0.00    +0.000 C 
ATOM      3  C   UNL     1       6.065  61.600  20.524  0.00  0.00    +0.000 C 
ATOM      4  N   UNL     1       7.470  62.580  18.955  0.00  0.00    +0.000 N 
ATOM      5  C   UNL     1       6.556  60.508  19.566  0.00  0.00    +0.000 C 
ATOM      6  H   UNL     1       6.733  62.893  18.324  0.00  0.00    +0.000 HD
ATOM      7  H   UNL     1       8.298  63.134  18.735  0.00  0.00    +0.000 HD
ENDROOT
BRANCH   1   8
ATOM      8  O   UNL     1       7.655  60.765  17.438  0.00  0.00    +0.000 OA
BRANCH   8   9
ATOM      9  C   UNL     1       8.923  60.417  16.903  0.00  0.00    +0.000 C 
BRANCH   9  10
ATOM     10  C   UNL     1       8.818  59.016  16.299  0.00  0.00    +0.000 C 
ATOM     11  C   UNL     1       7.428  58.418  16.445  0.00  0.00    +0.000 C 
ENDBRANCH   9  10
BRANCH   9  12
ATOM     12  O   UNL     1       9.312  61.350  15.910  0.00  0.00    +0.000 OA
ATOM     13  H   UNL     1       9.769  60.886  15.191  0.00  0.00    +0.000 HD
ENDBRANCH   9  12
ENDBRANCH   8   9
ENDBRANCH   1   8
BRANCH   3  14
ATOM     14  C   UNL     1       5.770  61.206  21.979  0.00  0.00    +0.000 C 
BRANCH  14  15
ATOM     15  O   UNL     1       5.922  62.339  22.838  0.00  0.00    +0.000 OA
ATOM     16  H   UNL     1       6.716  62.227  23.383  0.00  0.00    +0.000 HD
ENDBRANCH  14  15
BRANCH  14  17
ATOM     17  C   UNL     1       4.465  60.448  22.307  0.00  0.00    +0.000 C 
BRANCH  17  18
ATOM     18  C   UNL     1       4.545  58.945  22.427  0.00  0.00    +0.000 A 
ATOM     19  C   UNL     1       4.341  56.727  21.432  0.00  0.00    +0.000 A 
ATOM     20  C   UNL     1       4.684  56.144  22.656  0.00  0.00    +0.000 A 
ATOM     21  C   UNL     1       4.867  58.341  23.651  0.00  0.00    +0.000 A 
ATOM     22  C   UNL     1       4.266  58.123  21.324  0.00  0.00    +0.000 A 
ATOM     23  C   UNL     1       4.942  56.952  23.764  0.00  0.00    +0.000 A 
BRANCH  19  26
ATOM     24  O   UNL     1       4.199  54.710  20.128  0.00  0.00    +0.000 OA
ATOM     25  O   UNL     1       3.583  56.645  19.201  0.00  0.00    +0.000 OA
ATOM     26  C   UNL     1       4.051  55.913  20.228  0.00  0.00    +0.000 C 
ENDBRANCH  19  26
ENDBRANCH  17  18
ENDBRANCH  14  17
ENDBRANCH   3  14
TORSDOF 9
ENDMDL

MODEL 2
REMARK VINA RESULT:      -7.6      0.000      0.000
REMARK  Name = 
REMARK  12 active torsions:
REMARK  status: ('A' for Active; 'I' for Inactive)
REMARK    1  A    between atoms: N_1  and  O_11
REMARK    2  A    between atoms: N_1  and  C_12
REMARK    3  A    between atoms: N_1  and  C_17
REMARK    4  A    between atoms: C_4  and  C_5
REMARK    5  A    between atoms: C_4  and  C_21
REMARK    6  A    between atoms: O_6  and  C_21
REMARK    7  A    between atoms: C_7  and  C_19
REMARK    8  A    between atoms: O_9  and  C_19
REMARK    9  A    between atoms: C_10  and  C_13
REMARK   10  A    between atoms: C_10  and  C_21
REMARK   11  A    between atoms: C_15  and  C_16
REMARK   12  A    between atoms: C_16  and  C_19
REMARK                            x       y       z     vdW  Elec       q    Type
REMARK                         _______ _______ _______ _____ _____    ______ ____
ROOT
ATOM      1  C   UNL     1       6.038  61.141  21.404  0.00  0.00    +0.000 C 
ENDROOT
BRANCH   1   3
ATOM      2  C   UNL     1       8.445  61.333  18.493  0.00  0.00    +0.000 C 
ATOM      3  C   UNL     1       6.544  61.493  19.996  0.00  0.00    +0.000 C 
ATOM      4  C   UNL     1       7.287  62.814  19.878  0.00  0.00    +0.000 C 
ATOM      5  C   UNL     1       7.450  60.481  19.289  0.00  0.00    +0.000 C 
ATOM      6  N   UNL     1       7.917  62.706  18.560  0.00  0.00    +0.000 N 
ATOM      7  H   UNL     1       7.231  62.862  17.822  0.00  0.00    +0.000 HD
ATOM      8  H   UNL     1       8.651  63.404  18.432  0.00  0.00    +0.000 HD
BRANCH   2   9
ATOM      9  C   UNL     1       8.684  60.860  17.051  0.00  0.00    +0.000 C 
BRANCH   9  10
ATOM     10  C   UNL     1       7.407  60.590  16.235  0.00  0.00    +0.000 C 
BRANCH  10  11
ATOM     11  O   UNL     1       7.388  61.406  15.065  0.00  0.00    +0.000 OA
ATOM     12  H   UNL     1       6.899  60.952  14.362  0.00  0.00    +0.000 HD
ENDBRANCH  10  11
BRANCH  10  13
ATOM     13  C   UNL     1       7.266  59.122  15.810  0.00  0.00    +0.000 C 
ATOM     14  C   UNL     1       8.398  58.217  16.282  0.00  0.00    +0.000 C 
ENDBRANCH  10  13
ENDBRANCH   9  10
ENDBRANCH   2   9
ENDBRANCH   1   3
BRANCH   1  15
ATOM     15  O   UNL     1       6.187  62.270  22.271  0.00  0.00    +0.000 OA
ATOM     16  H   UNL     1       5.330  62.486  22.670  0.00  0.00    +0.000 HD
ENDBRANCH   1  15
BRANCH   1  17
ATOM     17  C   UNL     1       4.637  60.510  21.564  0.00  0.00    +0.000 C 
BRANCH  17  22
ATOM     18  C   UNL     1       4.868  56.897  22.739  0.00  0.00    +0.000 A 
ATOM     19  C   UNL     1       4.100  58.294  20.465  0.00  0.00    +0.000 A 
ATOM     20  C   UNL     1       4.922  58.288  22.737  0.00  0.00    +0.000 A 
ATOM     21  C   UNL     1       4.024  56.892  20.445  0.00  0.00    +0.000 A 
ATOM     22  C   UNL     1       4.558  59.003  21.593  0.00  0.00    +0.000 A 
ATOM     23  C   UNL     1       4.434  56.211  21.602  0.00  0.00    +0.000 A 
BRANCH  21  24
ATOM     24  N   UNL     1       3.603  56.174  19.304  0.00  0.00    +0.000 N 
ATOM     25  C   UNL     1       2.816  54.961  19.526  0.00  0.00    +0.000 C 
BRANCH  24  26
ATOM     26  O   UNL     1       4.500  55.998  18.245  0.00  0.00    +0.000 OA
ATOM     27  H   UNL     1       4.715  56.862  17.856  0.00  0.00    +0.000 HD
ENDBRANCH  24  26
ENDBRANCH  21  24
ENDBRANCH  17  22
ENDBRANCH   1  17
TORSDOF 10
ENDMDL

MODEL 3
REMARK VINA RESULT:      -7.0      0.000      0.000
REMARK  Name = 
REMARK  10 active torsions:
REMARK  status: ('A' for Active; 'I' for Inactive)
REMARK    1  A    between atoms: C_2  and  N_11
REMARK    2  A    between atoms: C_2  and  C_15
REMARK    3  A    between atoms: C_2  and  O_17
REMARK    4  A    between atoms: C_4  and  O_12
REMARK    5  A    between atoms: C_6  and  C_19
REMARK    6  A    between atoms: C_7  and  O_12
REMARK    7  A    between atoms: C_7  and  C_13
REMARK    8  A    between atoms: O_9  and  C_19
REMARK    9  A    between atoms: C_10  and  C_20
REMARK   10  A    between atoms: C_19  and  C_20
REMARK                            x       y       z     vdW  Elec       q    Type
REMARK                         _______ _______ _______ _____ _____    ______ ____
ROOT
ATOM      1  C   UNL     1       4.492  56.208  21.711  0.00  0.00    +0.000 A 
ATOM      2  C   UNL     1       4.194  58.207  20.393  0.00  0.00    +0.000 A 
ATOM      3  C   UNL     1       4.825  56.989  22.817  0.00  0.00    +0.000 A 
ATOM      4  C   UNL     1       4.546  59.004  21.495  0.00  0.00    +0.000 A 
ATOM      5  C   UNL     1       4.174  56.804  20.482  0.00  0.00    +0.000 A 
ATOM      6  C   UNL     1       4.848  58.380  22.711  0.00  0.00    +0.000 A 
ENDROOT
BRANCH   5   7
ATOM      7  C   UNL     1       3.759  55.981  19.285  0.00  0.00    +0.000 C 
BRANCH   7   8
ATOM      8  N   UNL     1       4.564  56.281  18.126  0.00  0.00    +0.000 N 
ATOM      9  H   UNL     1       5.462  55.802  18.203  0.00  0.00    +0.000 HD
ATOM     10  H   UNL     1       4.720  57.287  18.071  0.00  0.00    +0.000 HD
ATOM     11  H   UNL     1       4.081  55.965  17.285  0.00  0.00    +0.000 HD
ENDBRANCH   7   8
BRANCH   7  12
ATOM     12  O   UNL     1       2.428  56.246  18.918  0.00  0.00    +0.000 OA
ATOM     13  H   UNL     1       1.930  56.537  19.699  0.00  0.00    +0.000 HD
ENDBRANCH   7  12
ENDBRANCH   5   7
BRANCH   4  14
ATOM     14  C   UNL     1       4.579  60.508  21.371  0.00  0.00    +0.000 C 
BRANCH  14  15
ATOM     15  C   UNL     1       5.865  61.223  21.840  0.00  0.00    +0.000 C 
BRANCH  15  17
ATOM     16  C   UNL     1       7.926  61.291  18.633  0.00  0.00    +0.000 C 
ATOM     17  C   UNL     1       7.023  61.412  20.844  0.00  0.00    +0.000 C 
ATOM     18  C   UNL     1       7.360  62.848  20.411  0.00  0.00    +0.000 C 
ATOM     19  C   UNL     1       6.911  60.614  19.547  0.00  0.00    +0.000 C 
ATOM     20  C   UNL     1       7.697  62.773  18.922  0.00  0.00    +0.000 C 
BRANCH  16  21
ATOM     21  O   UNL     1       7.653  60.939  17.283  0.00  0.00    +0.000 OA
BRANCH  21  22
ATOM     22  C   UNL     1       8.683  60.148  16.696  0.00  0.00    +0.000 C 
ATOM     23  C   UNL     1       8.153  58.740  16.510  0.00  0.00    +0.000 C 
ENDBRANCH  21  22
ENDBRANCH  16  21
ENDBRANCH  15  17
BRANCH  15  24
ATOM     24  O   UNL     1       5.553  62.475  22.458  0.00  0.00    +0.000 OA
ATOM     25  H   UNL     1       5.064  63.031  21.832  0.00  0.00    +0.000 HD
ENDBRANCH  15  24
ENDBRANCH  14  15
ENDBRANCH   4  14
TORSDOF 9
ENDMDL

MODEL 4
REMARK VINA RESULT:      -7.1      0.000      0.000
REMARK  Name = 
REMARK  8 active torsions:
REMARK  status: ('A' for Active; 'I' for Inactive)
REMARK    1  A    between atoms: O_3  and  C_9
REMARK    2  A    between atoms: O_3  and  C_13
REMARK    3  A    between atoms: C_4  and  C_19
REMARK    4  A    between atoms: C_5  and  C_16
REMARK    5  A    between atoms: O_7  and  C_8
REMARK    6  A    between atoms: C_8  and  C_19
REMARK    7  A    between atoms: C_8  and  C_20
REMARK    8  A    between atoms: C_9  and  C_15
REMARK                            x       y       z     vdW  Elec       q    Type
REMARK                         _______ _______ _______ _____ _____    ______ ____
ROOT
ATOM      1  C   UNL     1       6.090  61.174  21.613  0.00  0.00    +0.000 C 
ENDROOT
BRANCH   1   6
ATOM      2  C   UNL     1       7.357  62.742  19.928  0.00  0.00    +0.000 C 
ATOM      3  C   UNL     1       8.281  61.007  18.498  0.00  0.00    +0.000 C 
ATOM      4  C   UNL     1       7.352  60.343  19.509  0.00  0.00    +0.000 C 
ATOM      5  C   UNL     1       7.787  62.451  18.491  0.00  0.00    +0.000 C 
ATOM      6  C   UNL     1       7.252  61.377  20.626  0.00  0.00    +0.000 C 
BRANCH   3   7
ATOM      7  O   UNL     1       8.138  60.371  17.237  0.00  0.00    +0.000 OA
BRANCH   7   8
ATOM      8  C   UNL     1       7.755  59.001  17.344  0.00  0.00    +0.000 C 
ATOM      9  C   UNL     1       8.400  58.235  16.207  0.00  0.00    +0.000 C 
ENDBRANCH   7   8
ENDBRANCH   3   7
ENDBRANCH   1   6
BRANCH   1  10
ATOM     10  O   UNL     1       5.716  62.434  22.177  0.00  0.00    +0.000 OA
ATOM     11  H   UNL     1       6.044  62.489  23.089  0.00  0.00    +0.000 HD
ENDBRANCH   1  10
BRANCH   1  12
ATOM     12  C   UNL     1       4.846  60.381  21.160  0.00  0.00    +0.000 C 
BRANCH  12  14
ATOM     13  C   UNL     1       4.454  56.283  22.489  0.00  0.00    +0.000 A 
ATOM     14  C   UNL     1       4.725  58.948  21.620  0.00  0.00    +0.000 A 
ATOM     15  C   UNL     1       4.345  56.595  21.129  0.00  0.00    +0.000 A 
ATOM     16  C   UNL     1       4.704  57.298  23.411  0.00  0.00    +0.000 A 
ATOM     17  C   UNL     1       4.461  57.922  20.699  0.00  0.00    +0.000 A 
ATOM     18  C   UNL     1       4.840  58.619  22.979  0.00  0.00    +0.000 A 
BRANCH  15  21
ATOM     19  O   UNL     1       3.779  55.795  18.963  0.00  0.00    +0.000 OA
ATOM     20  O   UNL     1       4.227  54.296  20.602  0.00  0.00    +0.000 OA
ATOM     21  C   UNL     1       4.070  55.547  20.120  0.00  0.00    +0.000 C 
ENDBRANCH  15  21
ENDBRANCH  12  14
ENDBRANCH   1  12
TORSDOF 7
ENDMDL

