
     RDKit          3D

 22 23  0  0  0  0  0  0  0  0999 V2000
    5.1883   57.2691   20.8691 C   0  0  0  0  0  0  0  0  0  0  0  0
    0.5777   53.0204   24.5622 C   0  0  0  0  0  0  0  0  0  0  0  0
    4.6049   59.0978   22.3737 C   0  0  0  0  0  0  0  0  0  0  0  0
    2.7325   54.2319   21.8298 C   0  0  0  0  0  0  0  0  0  0  0  0
    3.5270   61.1264   21.6565 O   0  0  0  0  0  0  0  0  0  0  0  0
    2.5582   52.0236   23.5971 O   0  0  0  0  0  0  0  0  0  0  0  0
    5.1070   58.3686   23.4567 C   0  0  0  0  0  0  0  0  0  0  0  0
    3.9670   53.8101   19.9184 C   0  0  0  0  0  0  0  0  0  0  0  0
    5.7047   56.5617   21.9637 C   0  0  0  0  0  0  0  0  0  0  0  0
    1.5840   53.8728   22.5704 O   0  0  0  0  0  0  0  0  0  0  0  0
    4.0567   60.8836   23.8125 O   0  0  0  0  0  0  0  0  0  0  0  0
    5.2365   56.6804   19.4790 C   0  0  0  0  0  0  0  0  0  0  0  0
    0.7925   52.4077   25.9373 C   0  0  0  0  0  0  0  0  0  0  0  0
    3.1426   55.0456   19.5795 C   0  0  0  0  0  0  0  0  0  0  0  0
    3.0318   57.2709   18.6009 O   0  0  0  0  0  0  0  0  0  0  0  0
    4.6528   58.5486   21.0846 C   0  0  0  0  0  0  0  0  0  0  0  0
    4.0141   60.4475   22.5412 C   0  0  0  0  0  0  0  0  0  0  0  0
    3.1484   53.1593   20.9340 N   0  0  0  0  0  0  0  0  0  0  0  0
    2.3992   55.3808   20.8783 C   0  0  0  0  0  0  0  0  0  0  0  0
    1.8889   53.2547   23.8114 C   0  0  0  0  0  0  0  0  0  0  0  0
    5.6597   57.1049   23.2490 C   0  0  0  0  0  0  0  0  0  0  0  0
    3.9087   56.1749   18.8735 C   0  0  0  0  0  0  0  0  0  0  0  0
  1  9  4  0
  1 12  1  0
  1 16  4  0
  2 13  1  0
  2 20  1  0
  3  7  4  0
  3 16  4  0
  3 17  1  0
  4 10  1  0
  4 18  1  0
  4 19  1  0
  5 17  2  0
  6 20  1  0
  7 21  4  0
  8 14  1  0
  8 18  1  0
  9 21  4  0
 10 20  1  0
 11 17  1  0
 12 22  1  0
 14 19  1  0
 14 22  1  0
 15 22  1  0
M  END
$$$$

     RDKit          3D

 22 23  0  0  0  0  0  0  0  0999 V2000
    4.1376   60.7923   22.3128 N   0  0  0  0  0  0  0  0  0  0  0  0
    6.1808   57.7205   22.8749 C   0  0  0  0  0  0  0  0  0  0  0  0
    4.5205   58.7896   20.9224 C   0  0  0  0  0  0  0  0  0  0  0  0
    2.3543   53.6718   23.7259 C   0  0  0  0  0  0  0  0  0  0  0  0
    3.3045   54.1863   22.6331 C   0  0  0  0  0  0  0  0  0  0  0  0
    1.4580   51.7394   22.5512 O   0  0  0  0  0  0  0  0  0  0  0  0
    3.0930   54.9234   20.3289 C   0  0  0  0  0  0  0  0  0  0  0  0
    5.9496   57.0047   21.7041 C   0  0  0  0  0  0  0  0  0  0  0  0
    2.3881   57.0202   19.3226 O   0  0  0  0  0  0  0  0  0  0  0  0
    0.0919   52.6250   24.3216 C   0  0  0  0  0  0  0  0  0  0  0  0
    4.5085   61.5350   23.4395 O   0  0  0  0  0  0  0  0  0  0  0  0
    4.7480   59.5383   22.0892 C   0  0  0  0  0  0  0  0  0  0  0  0
    0.6276   51.6943   25.4023 C   0  0  0  0  0  0  0  0  0  0  0  0
    4.1494   53.8406   20.4839 C   0  0  0  0  0  0  0  0  0  0  0  0
    5.1008   57.5224   20.7215 C   0  0  0  0  0  0  0  0  0  0  0  0
    4.8182   56.7467   19.4566 C   0  0  0  0  0  0  0  0  0  0  0  0
    3.9490   61.6639   21.1530 C   0  0  0  0  0  0  0  0  0  0  0  0
    2.7303   55.3125   21.7654 C   0  0  0  0  0  0  0  0  0  0  0  0
    3.4421   56.0528   19.3470 C   0  0  0  0  0  0  0  0  0  0  0  0
    5.5768   58.9659   23.0663 C   0  0  0  0  0  0  0  0  0  0  0  0
    1.0959   52.9524   23.2088 C   0  0  0  0  0  0  0  0  0  0  0  0
    3.7023   53.1316   21.6848 N   0  0  0  0  0  0  0  0  0  0  0  0
  1 11  1  0
  1 12  1  0
  1 17  1  0
  2  8  4  0
  2 20  4  0
  3 12  4  0
  3 15  4  0
  4  5  1  0
  4 21  1  0
  5 18  1  0
  5 22  1  0
  6 21  1  0
  7 14  1  0
  7 18  1  0
  7 19  1  0
  8 15  4  0
  9 19  1  0
 10 13  1  0
 10 21  1  0
 12 20  4  0
 14 22  1  0
 15 16  1  0
 16 19  1  0
M  END
$$$$

     RDKit          3D

 20 21  0  0  0  0  0  0  0  0999 V2000
    4.6741   59.0366   23.4062 C   0  0  0  0  0  0  0  0  0  0  0  0
    4.5829   60.9339   21.7128 C   0  0  0  0  0  0  0  0  0  0  0  0
    4.8917   58.5146   21.0608 C   0  0  0  0  0  0  0  0  0  0  0  0
    2.1389   53.4328   21.9451 C   0  0  0  0  0  0  0  0  0  0  0  0
    4.8315   57.6866   23.7188 C   0  0  0  0  0  0  0  0  0  0  0  0
    2.8545   54.9322   20.2237 C   0  0  0  0  0  0  0  0  0  0  0  0
    1.4872   52.1577   23.8376 C   0  0  0  0  0  0  0  0  0  0  0  0
    1.9470   55.7300   21.1758 C   0  0  0  0  0  0  0  0  0  0  0  0
    3.3862   56.8127   18.7833 O   0  0  0  0  0  0  0  0  0  0  0  0
    5.0348   57.1503   21.3623 C   0  0  0  0  0  0  0  0  0  0  0  0
    5.8717   61.5830   21.6958 N   0  0  0  0  0  0  0  0  0  0  0  0
    2.5658   52.6144   23.0247 O   0  0  0  0  0  0  0  0  0  0  0  0
    2.0530   51.2507   24.9127 C   0  0  0  0  0  0  0  0  0  0  0  0
    3.3245   53.7253   21.0320 C   0  0  0  0  0  0  0  0  0  0  0  0
    4.6995   59.4709   22.0730 C   0  0  0  0  0  0  0  0  0  0  0  0
    5.0157   56.7493   22.7033 C   0  0  0  0  0  0  0  0  0  0  0  0
    3.8043   61.6320   22.6511 O   0  0  0  0  0  0  0  0  0  0  0  0
    1.7084   54.8286   22.3866 C   0  0  0  0  0  0  0  0  0  0  0  0
    3.9594   55.7036   19.4822 C   0  0  0  0  0  0  0  0  0  0  0  0
    5.2223   56.1389   20.2567 C   0  0  0  0  0  0  0  0  0  0  0  0
  1  5  4  0
  1 15  4  0
  2 11  1  0
  2 15  1  0
  2 17  1  0
  3 10  4  0
  3 15  4  0
  4 12  1  0
  4 14  1  0
  4 18  1  0
  5 16  4  0
  6  8  1  0
  6 14  1  0
  6 19  1  0
  7 12  1  0
  7 13  1  0
  8 18  1  0
  9 19  1  0
 10 16  4  0
 10 20  1  0
 19 20  1  0
M  END
$$$$

     RDKit          3D

 20 21  0  0  0  0  0  0  0  0999 V2000
    4.8304   58.8871   23.5573 C   0  0  0  0  0  0  0  0  0  0  0  0
    5.3786   61.3410   21.0518 O   0  0  0  0  0  0  0  0  0  0  0  0
    2.5210   52.6345   22.9533 O   0  0  0  0  0  0  0  0  0  0  0  0
    5.1515   57.0713   21.4292 C   0  0  0  0  0  0  0  0  0  0  0  0
    4.8541   59.3470   22.2362 C   0  0  0  0  0  0  0  0  0  0  0  0
    4.9597   57.5231   23.8138 C   0  0  0  0  0  0  0  0  0  0  0  0
    3.5795   56.8177   18.7570 O   0  0  0  0  0  0  0  0  0  0  0  0
    4.1035   55.6960   19.4716 C   0  0  0  0  0  0  0  0  0  0  0  0
    1.4039   52.1763   23.7117 C   0  0  0  0  0  0  0  0  0  0  0  0
    3.7883   61.4108   22.6627 O   0  0  0  0  0  0  0  0  0  0  0  0
    5.0326   58.4466   21.1789 C   0  0  0  0  0  0  0  0  0  0  0  0
    2.0377   55.7645   21.0947 C   0  0  0  0  0  0  0  0  0  0  0  0
    2.1472   53.4591   21.8589 C   0  0  0  0  0  0  0  0  0  0  0  0
    3.3682   53.7256   20.9855 C   0  0  0  0  0  0  0  0  0  0  0  0
    1.9169   51.2730   24.8158 C   0  0  0  0  0  0  0  0  0  0  0  0
    4.7299   60.7888   21.9218 C   0  0  0  0  0  0  0  0  0  0  0  0
    1.7331   54.8630   22.2903 C   0  0  0  0  0  0  0  0  0  0  0  0
    5.1184   56.6226   22.7577 C   0  0  0  0  0  0  0  0  0  0  0  0
    5.3495   56.0979   20.2906 C   0  0  0  0  0  0  0  0  0  0  0  0
    2.9558   54.9480   20.1696 C   0  0  0  0  0  0  0  0  0  0  0  0
  1  5  4  0
  1  6  4  0
  2 16  2  0
  3  9  1  0
  3 13  1  0
  4 11  4  0
  4 18  4  0
  4 19  1  0
  5 11  4  0
  5 16  1  0
  6 18  4  0
  7  8  1  0
  8 19  1  0
  8 20  1  0
  9 15  1  0
 10 16  1  0
 12 17  1  0
 12 20  1  0
 13 14  1  0
 13 17  1  0
 14 20  1  0
M  END
$$$$
