
     RDKit          3D

 22 23  0  0  0  0  0  0  0  0999 V2000
    5.1064   57.4203   20.9140 C   0  0  0  0  0  0  0  0  0  0  0  0
    0.5373   52.7890   24.6441 C   0  0  0  0  0  0  0  0  0  0  0  0
    4.5701   59.3632   22.2607 C   0  0  0  0  0  0  0  0  0  0  0  0
    2.4705   54.1917   22.0726 C   0  0  0  0  0  0  0  0  0  0  0  0
    4.3823   61.5791   21.4306 O   0  0  0  0  0  0  0  0  0  0  0  0
    2.0059   51.6042   23.1721 O   0  0  0  0  0  0  0  0  0  0  0  0
    4.9890   58.5496   23.3394 C   0  0  0  0  0  0  0  0  0  0  0  0
    4.0119   53.8583   20.0997 C   0  0  0  0  0  0  0  0  0  0  0  0
    5.4944   56.7385   21.7883 C   0  0  0  0  0  0  0  0  0  0  0  0
    1.6943   53.5619   22.8851 O   0  0  0  0  0  0  0  0  0  0  0  0
    4.1070   61.1383   23.7493 O   0  0  0  0  0  0  0  0  0  0  0  0
    5.1140   56.7644   19.6006 C   0  0  0  0  0  0  0  0  0  0  0  0
    1.0378   51.9364   25.6219 C   0  0  0  0  0  0  0  0  0  0  0  0
    3.2812   55.0443   19.9626 C   0  0  0  0  0  0  0  0  0  0  0  0
    2.9632   57.0697   18.7546 O   0  0  0  0  0  0  0  0  0  0  0  0
    4.6612   58.6668   20.9652 C   0  0  0  0  0  0  0  0  0  0  0  0
    4.1598   60.7482   22.3737 C   0  0  0  0  0  0  0  0  0  0  0  0
    3.2102   53.0970   21.0713 N   0  0  0  0  0  0  0  0  0  0  0  0
    2.5618   55.3087   21.0563 C   0  0  0  0  0  0  0  0  0  0  0  0
    1.7564   52.9435   23.6692 C   0  0  0  0  0  0  0  0  0  0  0  0
    5.4539   57.2559   23.1366 C   0  0  0  0  0  0  0  0  0  0  0  0
    3.9145   56.1122   19.0108 C   0  0  0  0  0  0  0  0  0  0  0  0
  1  9  1  0
  1 12  1  0
  1 16  2  0
  2 13  1  0
  2 20  1  0
  3  7  2  0
  3 16  1  0
  3 17  1  0
  4 10  1  0
  4 18  1  0
  4 19  1  0
  5 17  2  0
  6 20  1  0
  7 21  1  0
  8 14  1  0
  8 18  1  0
  9 21  2  0
 10 20  1  0
 11 17  1  0
 12 22  1  0
 14 19  1  0
 14 22  1  0
 15 22  1  0
M  END
$$$$

     RDKit          3D

 22 23  0  0  0  0  0  0  0  0999 V2000
    4.2049   60.7626   22.4158 N   0  0  0  0  0  0  0  0  0  0  0  0
    5.2935   57.3644   23.0633 C   0  0  0  0  0  0  0  0  0  0  0  0
    4.8751   58.8405   20.9011 C   0  0  0  0  0  0  0  0  0  0  0  0
    2.6674   54.0225   23.3627 C   0  0  0  0  0  0  0  0  0  0  0  0
    2.8300   54.2816   21.9663 C   0  0  0  0  0  0  0  0  0  0  0  0
    1.8782   51.6038   23.3491 O   0  0  0  0  0  0  0  0  0  0  0  0
    3.0218   55.0821   19.8417 C   0  0  0  0  0  0  0  0  0  0  0  0
    5.3276   56.6415   22.0248 C   0  0  0  0  0  0  0  0  0  0  0  0
    2.9690   57.2011   18.7836 O   0  0  0  0  0  0  0  0  0  0  0  0
    0.6607   52.8379   24.7531 C   0  0  0  0  0  0  0  0  0  0  0  0
    4.0525   61.2944   23.7116 O   0  0  0  0  0  0  0  0  0  0  0  0
    4.6215   59.4015   22.1325 C   0  0  0  0  0  0  0  0  0  0  0  0
    0.8428   51.9243   25.9231 C   0  0  0  0  0  0  0  0  0  0  0  0
    3.7127   54.0110   20.3124 C   0  0  0  0  0  0  0  0  0  0  0  0
    5.1225   57.4818   20.8539 C   0  0  0  0  0  0  0  0  0  0  0  0
    5.1008   56.7188   19.5710 C   0  0  0  0  0  0  0  0  0  0  0  0
    4.7311   61.8109   21.2438 C   0  0  0  0  0  0  0  0  0  0  0  0
    2.5423   55.3103   21.1025 C   0  0  0  0  0  0  0  0  0  0  0  0
    3.8033   56.1976   19.0652 C   0  0  0  0  0  0  0  0  0  0  0  0
    4.7806   58.5342   23.1661 C   0  0  0  0  0  0  0  0  0  0  0  0
    1.7199   52.8643   23.8127 C   0  0  0  0  0  0  0  0  0  0  0  0
    3.1689   53.2425   21.1594 N   0  0  0  0  0  0  0  0  0  0  0  0
  1 11  1  0
  1 12  1  0
  1 17  1  0
  2  8  2  0
  2 20  1  0
  3 12  1  0
  3 15  2  0
  4  5  1  0
  4 21  1  0
  5 18  1  0
  5 22  1  0
  6 21  1  0
  7 14  1  0
  7 18  1  0
  7 19  1  0
  8 15  1  0
  9 19  1  0
 10 13  1  0
 10 21  1  0
 12 20  2  0
 14 22  1  0
 15 16  1  0
 16 19  1  0
M  END
$$$$

     RDKit          3D

 20 21  0  0  0  0  0  0  0  0999 V2000
    4.6175   59.0336   23.4012 C   0  0  0  0  0  0  0  0  0  0  0  0
    4.6271   60.9801   21.8250 C   0  0  0  0  0  0  0  0  0  0  0  0
    5.0486   58.6457   20.9900 C   0  0  0  0  0  0  0  0  0  0  0  0
    1.8683   53.2769   21.8935 C   0  0  0  0  0  0  0  0  0  0  0  0
    4.7390   57.7117   23.5500 C   0  0  0  0  0  0  0  0  0  0  0  0
    3.0553   54.9811   20.2863 C   0  0  0  0  0  0  0  0  0  0  0  0
    1.3626   52.1494   23.8355 C   0  0  0  0  0  0  0  0  0  0  0  0
    2.1903   55.4717   21.3440 C   0  0  0  0  0  0  0  0  0  0  0  0
    3.3598   56.8000   18.8579 O   0  0  0  0  0  0  0  0  0  0  0  0
    5.0365   57.2465   21.2929 C   0  0  0  0  0  0  0  0  0  0  0  0
    5.8257   61.6022   21.6015 N   0  0  0  0  0  0  0  0  0  0  0  0
    2.4717   52.6459   23.0602 O   0  0  0  0  0  0  0  0  0  0  0  0
    2.0333   51.3167   24.9418 C   0  0  0  0  0  0  0  0  0  0  0  0
    3.3342   53.7126   20.9556 C   0  0  0  0  0  0  0  0  0  0  0  0
    4.7293   59.4736   22.0823 C   0  0  0  0  0  0  0  0  0  0  0  0
    4.9523   56.7019   22.5853 C   0  0  0  0  0  0  0  0  0  0  0  0
    3.8480   61.6483   22.7263 O   0  0  0  0  0  0  0  0  0  0  0  0
    1.8136   54.6435   22.4512 C   0  0  0  0  0  0  0  0  0  0  0  0
    3.9497   55.7643   19.5428 C   0  0  0  0  0  0  0  0  0  0  0  0
    5.1905   56.2784   20.2213 C   0  0  0  0  0  0  0  0  0  0  0  0
  1  5  2  0
  1 15  1  0
  2 11  1  0
  2 15  1  0
  2 17  1  0
  3 10  1  0
  3 15  2  0
  4 12  1  0
  4 14  1  0
  4 18  1  0
  5 16  1  0
  6  8  1  0
  6 14  1  0
  6 19  1  0
  7 12  1  0
  7 13  1  0
  8 18  1  0
  9 19  1  0
 10 16  2  0
 10 20  1  0
 19 20  1  0
M  END
$$$$

     RDKit          3D

 20 21  0  0  0  0  0  0  0  0999 V2000
    4.6082   58.8702   23.3316 C   0  0  0  0  0  0  0  0  0  0  0  0
    5.8848   61.5427   21.6847 O   0  0  0  0  0  0  0  0  0  0  0  0
    2.4516   52.5711   22.9373 O   0  0  0  0  0  0  0  0  0  0  0  0
    5.1634   57.1592   21.1789 C   0  0  0  0  0  0  0  0  0  0  0  0
    4.8084   59.4898   21.9891 C   0  0  0  0  0  0  0  0  0  0  0  0
    4.7170   57.5140   23.4601 C   0  0  0  0  0  0  0  0  0  0  0  0
    3.5874   56.5817   18.9963 O   0  0  0  0  0  0  0  0  0  0  0  0
    4.2159   55.6776   19.6181 C   0  0  0  0  0  0  0  0  0  0  0  0
    1.4071   52.0586   23.7217 C   0  0  0  0  0  0  0  0  0  0  0  0
    3.8862   61.6493   22.6609 O   0  0  0  0  0  0  0  0  0  0  0  0
    5.1567   58.5528   20.9495 C   0  0  0  0  0  0  0  0  0  0  0  0
    2.2280   55.5392   21.2619 C   0  0  0  0  0  0  0  0  0  0  0  0
    2.0305   53.2437   21.8538 C   0  0  0  0  0  0  0  0  0  0  0  0
    3.2371   53.6214   20.9281 C   0  0  0  0  0  0  0  0  0  0  0  0
    1.9876   51.1818   24.8184 C   0  0  0  0  0  0  0  0  0  0  0  0
    4.7867   60.9022   21.8959 C   0  0  0  0  0  0  0  0  0  0  0  0
    1.6948   54.8429   22.4219 C   0  0  0  0  0  0  0  0  0  0  0  0
    4.8964   56.6421   22.5607 C   0  0  0  0  0  0  0  0  0  0  0  0
    4.9407   56.3219   20.2978 C   0  0  0  0  0  0  0  0  0  0  0  0
    3.2713   54.9319   20.4417 C   0  0  0  0  0  0  0  0  0  0  0  0
  1  5  2  0
  1  6  1  0
  2 16  2  0
  3  9  1  0
  3 13  1  0
  4 11  2  0
  4 18  1  0
  4 19  1  0
  5 11  1  0
  5 16  1  0
  6 18  2  0
  7  8  1  0
  8 19  1  0
  8 20  1  0
  9 15  1  0
 10 16  1  0
 12 17  1  0
 12 20  1  0
 13 14  1  0
 13 17  1  0
 14 20  1  0
M  END
$$$$
