=
 OpenBabel12172413163D

 26 27  0  0  1  0  0  0  0  0999 V2000
    7.7100   61.1510   18.7950 C   0  0  1  0  0  3  0  0  0  0  0  0
    7.0580   62.7420   20.3440 C   0  0  0  0  0  2  0  0  0  0  0  0
    6.0650   61.6000   20.5240 C   0  0  1  0  0  3  0  0  0  0  0  0
    7.4700   62.5800   18.9550 N   0  0  0  0  0  4  0  0  0  0  0  0
    6.5560   60.5080   19.5660 C   0  0  0  0  0  2  0  0  0  0  0  0
    6.7330   62.8930   18.3240 H   0  0  0  0  0  0  0  0  0  0  0  0
    8.2980   63.1340   18.7350 H   0  0  0  0  0  0  0  0  0  0  0  0
    7.6550   60.7650   17.4380 O   0  0  0  0  0  0  0  0  0  0  0  0
    8.9230   60.4170   16.9030 C   0  0  1  0  0  3  0  0  0  0  0  0
    8.8180   59.0160   16.2990 C   0  0  0  0  0  2  0  0  0  0  0  0
    7.4280   58.4180   16.4450 C   0  0  0  0  0  1  0  0  0  0  0  0
    9.3120   61.3500   15.9100 O   0  0  0  0  0  0  0  0  0  0  0  0
    9.7690   60.8860   15.1910 H   0  0  0  0  0  0  0  0  0  0  0  0
    5.7700   61.2060   21.9790 C   0  0  1  0  0  3  0  0  0  0  0  0
    5.9220   62.3390   22.8380 O   0  0  0  0  0  0  0  0  0  0  0  0
    6.7160   62.2270   23.3830 H   0  0  0  0  0  0  0  0  0  0  0  0
    4.4650   60.4480   22.3070 C   0  0  0  0  0  2  0  0  0  0  0  0
    4.5450   58.9450   22.4270 C   0  0  0  0  0  0  0  0  0  0  0  0
    4.3410   56.7270   21.4320 C   0  0  0  0  0  0  0  0  0  0  0  0
    4.6840   56.1440   22.6560 C   0  0  0  0  0  3  0  0  0  0  0  0
    4.8670   58.3410   23.6510 C   0  0  0  0  0  3  0  0  0  0  0  0
    4.2660   58.1230   21.3240 C   0  0  0  0  0  3  0  0  0  0  0  0
    4.9420   56.9520   23.7640 C   0  0  0  0  0  3  0  0  0  0  0  0
    4.1990   54.7100   20.1280 O   0  0  0  0  0  1  0  0  0  0  0  0
    3.5830   56.6450   19.2010 O   0  0  0  0  0  0  0  0  0  0  0  0
    4.0510   55.9130   20.2280 C   0  0  0  0  0  0  0  0  0  0  0  0
  1  8  1  6  0  0  0
  1  4  1  0  0  0  0
  1  5  1  0  0  0  0
  2  3  1  0  0  0  0
  3 14  1  1  0  0  0
  4  2  1  0  0  0  0
  5  3  1  0  0  0  0
  6  4  1  0  0  0  0
  7  4  1  0  0  0  0
  9 10  1  6  0  0  0
  9  8  1  0  0  0  0
 10 11  1  0  0  0  0
 12  9  1  0  0  0  0
 13 12  1  0  0  0  0
 14 17  1  6  0  0  0
 14 15  1  0  0  0  0
 15 16  1  0  0  0  0
 17 18  1  0  0  0  0
 18 21  1  0  0  0  0
 19 20  2  0  0  0  0
 20 23  1  0  0  0  0
 21 23  2  0  0  0  0
 22 19  1  0  0  0  0
 22 18  2  0  0  0  0
 24 26  1  0  0  0  0
 25 26  2  0  0  0  0
 26 19  1  0  0  0  0
M  END
>  <MODEL>
1

>  <REMARK>
 VINA RESULT:      -7.5      0.000      0.000
  Name = 
  10 active torsions:
  status: ('A' for Active; 'I' for Inactive)
    1  A    between atoms: C_1  and  C_12
    2  A    between atoms: C_2  and  C_13
    3  A    between atoms: C_2  and  C_20
    4  A    between atoms: C_3  and  C_17
    5  A    between atoms: C_4  and  O_10
    6  A    between atoms: O_6  and  C_20
    7  A    between atoms: O_10  and  C_20
    8  A    between atoms: C_12  and  C_22
    9  A    between atoms: C_14  and  C_22
   10  A    between atoms: O_15  and  C_22
                            x       y       z     vdW  Elec       q    Type
                         _______ _______ _______ _____ _____    ______ ____

>  <TORSDO>
F 9

$$$$
=
 OpenBabel12172413173D

 27 28  0  0  1  0  0  0  0  0999 V2000
    6.0380   61.1410   21.4040 C   0  0  1  0  0  3  0  0  0  0  0  0
    8.4450   61.3330   18.4930 C   0  0  2  0  0  3  0  0  0  0  0  0
    6.5440   61.4930   19.9960 C   0  0  1  0  0  3  0  0  0  0  0  0
    7.2870   62.8140   19.8780 C   0  0  0  0  0  2  0  0  0  0  0  0
    7.4500   60.4810   19.2890 C   0  0  0  0  0  2  0  0  0  0  0  0
    7.9170   62.7060   18.5600 N   0  0  0  0  0  4  0  0  0  0  0  0
    7.2310   62.8620   17.8220 H   0  0  0  0  0  0  0  0  0  0  0  0
    8.6510   63.4040   18.4320 H   0  0  0  0  0  0  0  0  0  0  0  0
    8.6840   60.8600   17.0510 C   0  0  0  0  0  2  0  0  0  0  0  0
    7.4070   60.5900   16.2350 C   0  0  1  0  0  3  0  0  0  0  0  0
    7.3880   61.4060   15.0650 O   0  0  0  0  0  0  0  0  0  0  0  0
    6.8990   60.9520   14.3620 H   0  0  0  0  0  0  0  0  0  0  0  0
    7.2660   59.1220   15.8100 C   0  0  0  0  0  2  0  0  0  0  0  0
    8.3980   58.2170   16.2820 C   0  0  0  0  0  1  0  0  0  0  0  0
    6.1870   62.2700   22.2710 O   0  0  0  0  0  0  0  0  0  0  0  0
    5.3300   62.4860   22.6700 H   0  0  0  0  0  0  0  0  0  0  0  0
    4.6370   60.5100   21.5640 C   0  0  0  0  0  2  0  0  0  0  0  0
    4.8680   56.8970   22.7390 C   0  0  0  0  0  3  0  0  0  0  0  0
    4.1000   58.2940   20.4650 C   0  0  0  0  0  3  0  0  0  0  0  0
    4.9220   58.2880   22.7370 C   0  0  0  0  0  3  0  0  0  0  0  0
    4.0240   56.8920   20.4450 C   0  0  0  0  0  0  0  0  0  0  0  0
    4.5580   59.0030   21.5930 C   0  0  0  0  0  0  0  0  0  0  0  0
    4.4340   56.2110   21.6020 C   0  0  0  0  0  3  0  0  0  0  0  0
    3.6030   56.1740   19.3040 N   0  0  0  0  0  0  0  0  0  0  0  0
    2.8160   54.9610   19.5260 C   0  0  0  0  0  1  0  0  0  0  0  0
    4.5000   55.9980   18.2450 O   0  0  0  0  0  0  0  0  0  0  0  0
    4.7150   56.8620   17.8560 H   0  0  0  0  0  0  0  0  0  0  0  0
  1 17  1  6  0  0  0
  1 15  1  0  0  0  0
  2  9  1  6  0  0  0
  2  6  1  0  0  0  0
  2  5  1  0  0  0  0
  3  1  1  1  0  0  0
  4  3  1  0  0  0  0
  5  3  1  0  0  0  0
  6  4  1  0  0  0  0
  7  6  1  0  0  0  0
  8  6  1  0  0  0  0
 10 13  1  6  0  0  0
 10  9  1  0  0  0  0
 11 10  1  0  0  0  0
 12 11  1  0  0  0  0
 13 14  1  0  0  0  0
 15 16  1  0  0  0  0
 17 22  1  0  0  0  0
 19 22  1  0  0  0  0
 20 18  1  0  0  0  0
 21 19  2  0  0  0  0
 21 23  1  0  0  0  0
 22 20  2  0  0  0  0
 23 18  2  0  0  0  0
 24 25  1  0  0  0  0
 24 21  1  0  0  0  0
 26 24  1  0  0  0  0
 27 26  1  0  0  0  0
M  END
>  <MODEL>
1

>  <REMARK>
 VINA RESULT:      -7.6      0.000      0.000
  Name = 
  12 active torsions:
  status: ('A' for Active; 'I' for Inactive)
    1  A    between atoms: N_1  and  O_11
    2  A    between atoms: N_1  and  C_12
    3  A    between atoms: N_1  and  C_17
    4  A    between atoms: C_4  and  C_5
    5  A    between atoms: C_4  and  C_21
    6  A    between atoms: O_6  and  C_21
    7  A    between atoms: C_7  and  C_19
    8  A    between atoms: O_9  and  C_19
    9  A    between atoms: C_10  and  C_13
   10  A    between atoms: C_10  and  C_21
   11  A    between atoms: C_15  and  C_16
   12  A    between atoms: C_16  and  C_19
                            x       y       z     vdW  Elec       q    Type
                         _______ _______ _______ _____ _____    ______ ____

>  <TORSDO>
F 10

$$$$
=
 OpenBabel12172413173D

 25 26  0  0  1  0  0  0  0  0999 V2000
    4.4920   56.2080   21.7110 C   0  0  0  0  0  3  0  0  0  0  0  0
    4.1940   58.2070   20.3930 C   0  0  0  0  0  3  0  0  0  0  0  0
    4.8250   56.9890   22.8170 C   0  0  0  0  0  3  0  0  0  0  0  0
    4.5460   59.0040   21.4950 C   0  0  0  0  0  0  0  0  0  0  0  0
    4.1740   56.8040   20.4820 C   0  0  0  0  0  0  0  0  0  0  0  0
    4.8480   58.3800   22.7110 C   0  0  0  0  0  3  0  0  0  0  0  0
    3.7590   55.9810   19.2850 C   0  0  2  0  0  3  0  0  0  0  0  0
    4.5640   56.2810   18.1260 N   0  0  0  0  0  4  0  0  0  0  0  0
    5.4620   55.8020   18.2030 H   0  0  0  0  0  0  0  0  0  0  0  0
    4.7200   57.2870   18.0710 H   0  0  0  0  0  0  0  0  0  0  0  0
    4.0810   55.9650   17.2850 H   0  0  0  0  0  0  0  0  0  0  0  0
    2.4280   56.2460   18.9180 O   0  0  0  0  0  0  0  0  0  0  0  0
    1.9300   56.5370   19.6990 H   0  0  0  0  0  0  0  0  0  0  0  0
    4.5790   60.5080   21.3710 C   0  0  0  0  0  2  0  0  0  0  0  0
    5.8650   61.2230   21.8400 C   0  0  1  0  0  3  0  0  0  0  0  0
    7.9260   61.2910   18.6330 C   0  0  2  0  0  3  0  0  0  0  0  0
    7.0230   61.4120   20.8440 C   0  0  2  0  0  3  0  0  0  0  0  0
    7.3600   62.8480   20.4110 C   0  0  0  0  0  2  0  0  0  0  0  0
    6.9110   60.6140   19.5470 C   0  0  0  0  0  2  0  0  0  0  0  0
    7.6970   62.7730   18.9220 C   0  0  0  0  0  2  0  0  0  0  0  0
    7.6530   60.9390   17.2830 O   0  0  0  0  0  0  0  0  0  0  0  0
    8.6830   60.1480   16.6960 C   0  0  0  0  0  2  0  0  0  0  0  0
    8.1530   58.7400   16.5100 C   0  0  0  0  0  1  0  0  0  0  0  0
    5.5530   62.4750   22.4580 O   0  0  0  0  0  0  0  0  0  0  0  0
    5.0640   63.0310   21.8320 H   0  0  0  0  0  0  0  0  0  0  0  0
  1  3  1  0  0  0  0
  2  5  1  0  0  0  0
  2  4  2  0  0  0  0
  4  6  1  0  0  0  0
  5  1  2  0  0  0  0
  6  3  2  0  0  0  0
  7 12  1  6  0  0  0
  7  5  1  0  0  0  0
  8  9  1  0  0  0  0
  8  7  1  0  0  0  0
 10  8  1  0  0  0  0
 11  8  1  0  0  0  0
 12 13  1  0  0  0  0
 14  4  1  0  0  0  0
 15 14  1  6  0  0  0
 15 24  1  0  0  0  0
 16 21  1  6  0  0  0
 16 20  1  0  0  0  0
 16 19  1  0  0  0  0
 17 15  1  6  0  0  0
 18 17  1  0  0  0  0
 19 17  1  0  0  0  0
 20 18  1  0  0  0  0
 22 21  1  0  0  0  0
 23 22  1  0  0  0  0
 25 24  1  0  0  0  0
M  END
>  <MODEL>
1

>  <REMARK>
 VINA RESULT:      -7.0      0.000      0.000
  Name = 
  10 active torsions:
  status: ('A' for Active; 'I' for Inactive)
    1  A    between atoms: C_2  and  N_11
    2  A    between atoms: C_2  and  C_15
    3  A    between atoms: C_2  and  O_17
    4  A    between atoms: C_4  and  O_12
    5  A    between atoms: C_6  and  C_19
    6  A    between atoms: C_7  and  O_12
    7  A    between atoms: C_7  and  C_13
    8  A    between atoms: O_9  and  C_19
    9  A    between atoms: C_10  and  C_20
   10  A    between atoms: C_19  and  C_20
                            x       y       z     vdW  Elec       q    Type
                         _______ _______ _______ _____ _____    ______ ____

>  <TORSDO>
F 9

$$$$
=
 OpenBabel12172413183D

 21 22  0  0  1  0  0  0  0  0999 V2000
    6.0900   61.1740   21.6130 C   0  0  1  0  0  3  0  0  0  0  0  0
    7.3570   62.7420   19.9280 C   0  0  0  0  0  2  0  0  0  0  0  0
    8.2810   61.0070   18.4980 C   0  0  2  0  0  3  0  0  0  0  0  0
    7.3520   60.3430   19.5090 C   0  0  0  0  0  2  0  0  0  0  0  0
    7.7870   62.4510   18.4910 C   0  0  0  0  0  2  0  0  0  0  0  0
    7.2520   61.3770   20.6260 C   0  0  2  0  0  3  0  0  0  0  0  0
    8.1380   60.3710   17.2370 O   0  0  0  0  0  0  0  0  0  0  0  0
    7.7550   59.0010   17.3440 C   0  0  0  0  0  2  0  0  0  0  0  0
    8.4000   58.2350   16.2070 C   0  0  0  0  0  1  0  0  0  0  0  0
    5.7160   62.4340   22.1770 O   0  0  0  0  0  0  0  0  0  0  0  0
    6.0440   62.4890   23.0890 H   0  0  0  0  0  0  0  0  0  0  0  0
    4.8460   60.3810   21.1600 C   0  0  0  0  0  2  0  0  0  0  0  0
    4.4540   56.2830   22.4890 C   0  0  0  0  0  3  0  0  0  0  0  0
    4.7250   58.9480   21.6200 C   0  0  0  0  0  0  0  0  0  0  0  0
    4.3450   56.5950   21.1290 C   0  0  0  0  0  0  0  0  0  0  0  0
    4.7040   57.2980   23.4110 C   0  0  0  0  0  3  0  0  0  0  0  0
    4.4610   57.9220   20.6990 C   0  0  0  0  0  3  0  0  0  0  0  0
    4.8400   58.6190   22.9790 C   0  0  0  0  0  3  0  0  0  0  0  0
    3.7790   55.7950   18.9630 O   0  0  0  0  0  0  0  0  0  0  0  0
    4.2270   54.2960   20.6020 O   0  0  0  0  0  1  0  0  0  0  0  0
    4.0700   55.5470   20.1200 C   0  0  0  0  0  0  0  0  0  0  0  0
  1 12  1  6  0  0  0
  1 10  1  0  0  0  0
  2  6  1  0  0  0  0
  3  7  1  6  0  0  0
  3  4  1  0  0  0  0
  4  6  1  0  0  0  0
  5  3  1  0  0  0  0
  5  2  1  0  0  0  0
  6  1  1  6  0  0  0
  7  8  1  0  0  0  0
  9  8  1  0  0  0  0
 10 11  1  0  0  0  0
 12 14  1  0  0  0  0
 13 16  1  0  0  0  0
 14 18  1  0  0  0  0
 15 13  2  0  0  0  0
 17 15  1  0  0  0  0
 17 14  2  0  0  0  0
 18 16  2  0  0  0  0
 19 21  2  0  0  0  0
 21 20  1  0  0  0  0
 21 15  1  0  0  0  0
M  END
>  <MODEL>
1

>  <REMARK>
 VINA RESULT:      -7.1      0.000      0.000
  Name = 
  8 active torsions:
  status: ('A' for Active; 'I' for Inactive)
    1  A    between atoms: O_3  and  C_9
    2  A    between atoms: O_3  and  C_13
    3  A    between atoms: C_4  and  C_19
    4  A    between atoms: C_5  and  C_16
    5  A    between atoms: O_7  and  C_8
    6  A    between atoms: C_8  and  C_19
    7  A    between atoms: C_8  and  C_20
    8  A    between atoms: C_9  and  C_15
                            x       y       z     vdW  Elec       q    Type
                         _______ _______ _______ _____ _____    ______ ____

>  <TORSDO>
F 7

$$$$
