
     RDKit          3D

 27 29  0  0  0  0  0  0  0  0999 V2000
    5.0117   55.5411   19.2037 O   0  0  0  0  0  0  0  0  0  0  0  0
    5.1374   61.0551   21.9663 C   0  0  0  0  0  0  0  0  0  0  0  0
    7.7103   59.5902   21.6073 C   0  0  0  0  0  0  0  0  0  0  0  0
    4.0987   55.7013   21.4002 C   0  0  0  0  0  0  0  0  0  0  0  0
    2.9037   53.9179   22.6733 C   0  0  0  0  0  0  0  0  0  0  0  0
    4.2353   56.3978   20.0592 C   0  0  0  0  0  0  0  0  0  0  0  0
    4.1249   59.0674   20.5494 C   0  0  0  0  0  0  0  0  0  0  0  0
    6.4815   59.3575   20.7391 C   0  0  0  0  0  0  0  0  0  0  0  0
    1.2505   52.4358   21.5499 C   0  0  0  0  0  0  0  0  0  0  0  0
    1.2894   52.6576   24.0557 C   0  0  0  0  0  0  0  0  0  0  0  0
    3.7296   54.2349   23.7612 C   0  0  0  0  0  0  0  0  0  0  0  0
    4.8911   55.9579   22.5158 C   0  0  0  0  0  0  0  0  0  0  0  0
    4.8044   57.8234   19.8890 C   0  0  0  0  0  0  0  0  0  0  0  0
    2.6632   58.9607   21.0053 C   0  0  0  0  0  0  0  0  0  0  0  0
    1.8928   51.4515   24.7641 C   0  0  0  0  0  0  0  0  0  0  0  0
    3.9804   61.3497   22.7489 O   0  0  0  0  0  0  0  0  0  0  0  0
    4.7054   55.2332   23.6894 C   0  0  0  0  0  0  0  0  0  0  0  0
    0.1257   53.2637   21.3417 O   0  0  0  0  0  0  0  0  0  0  0  0
    0.7971   50.9843   21.6194 C   0  0  0  0  0  0  0  0  0  0  0  0
    6.3753   61.3708   22.8380 C   0  0  0  0  0  0  0  0  0  0  0  0
    3.1275   54.6711   21.5035 C   0  0  0  0  0  0  0  0  0  0  0  0
    6.3724   62.7617   23.1673 O   0  0  0  0  0  0  0  0  0  0  0  0
    6.3238   57.9592   20.1588 C   0  0  0  0  0  0  0  0  0  0  0  0
    7.6948   61.0234   22.1446 C   0  0  0  0  0  0  0  0  0  0  0  0
    1.9370   52.9053   22.7535 N   0  0  0  0  0  0  0  0  0  0  0  0
    2.3751   58.5090   22.4272 C   0  0  0  0  0  0  0  0  0  0  0  0
    5.1851   59.5865   21.5331 C   0  0  0  0  0  0  0  0  0  0  0  0
  1  6  1  0
  2 16  1  0
  2 20  1  0
  2 27  1  0
  3  8  1  0
  3 24  1  0
  4  6  1  0
  4 12  4  0
  4 21  4  0
  5 11  4  0
  5 21  4  0
  5 25  1  0
  6 13  1  0
  7 13  1  0
  7 14  1  0
  7 27  1  0
  8 23  1  0
  8 27  1  0
  9 18  1  0
  9 19  1  0
  9 25  1  0
 10 15  1  0
 10 25  1  0
 11 17  4  0
 12 17  4  0
 13 23  1  0
 14 26  1  0
 20 22  1  0
 20 24  1  0
M  END
>  <zinc_id>  (1) 


$$$$
