
     RDKit          3D

 28 30  0  0  0  0  0  0  0  0999 V2000
    5.7531   58.5759   22.3195 N   0  0  0  0  0  0  0  0  0  0  0  0
    5.1967   62.7471   20.1226 O   0  0  0  0  0  0  0  0  0  0  0  0
    4.8357   54.0627   23.3048 C   0  0  0  0  0  0  0  0  0  0  0  0
    2.9385   59.9734   20.1744 C   0  0  0  0  0  0  0  0  0  0  0  0
    3.2793   52.2430   23.0396 C   0  0  0  0  0  0  0  0  0  0  0  0
    4.5719   58.5440   21.7346 C   0  0  0  0  0  0  0  0  0  0  0  0
    3.7001   57.3051   21.8583 C   0  0  0  0  0  0  0  0  0  0  0  0
    7.0455   61.8366   21.4218 C   0  0  0  0  0  0  0  0  0  0  0  0
    0.0649   50.9762   23.1401 C   0  0  0  0  0  0  0  0  0  0  0  0
   -0.1491   51.2727   20.6298 C   0  0  0  0  0  0  0  0  0  0  0  0
    5.8236   61.7789   20.8425 C   0  0  0  0  0  0  0  0  0  0  0  0
    4.4024   56.2602   22.4177 N   0  0  0  0  0  0  0  0  0  0  0  0
    6.0261   54.4896   23.8286 O   0  0  0  0  0  0  0  0  0  0  0  0
    2.3854   53.1030   22.4016 C   0  0  0  0  0  0  0  0  0  0  0  0
    0.7761   51.3867   21.8419 C   0  0  0  0  0  0  0  0  0  0  0  0
    8.5337   60.2540   22.8854 C   0  0  0  0  0  0  0  0  0  0  0  0
    7.9439   62.8703   21.3985 N   0  0  0  0  0  0  0  0  0  0  0  0
    6.2080   59.8039   21.9757 C   0  0  0  0  0  0  0  0  0  0  0  0
    4.5097   52.7238   23.4896 C   0  0  0  0  0  0  0  0  0  0  0  0
    5.2567   60.5046   21.1638 C   0  0  0  0  0  0  0  0  0  0  0  0
    2.7323   54.4499   22.2143 C   0  0  0  0  0  0  0  0  0  0  0  0
   -0.2870   49.4984   23.1977 C   0  0  0  0  0  0  0  0  0  0  0  0
    1.1468   52.7700   21.9270 O   0  0  0  0  0  0  0  0  0  0  0  0
    1.7993   60.5090   21.0281 C   0  0  0  0  0  0  0  0  0  0  0  0
    3.9670   54.9406   22.6445 C   0  0  0  0  0  0  0  0  0  0  0  0
    4.1715   59.7585   20.9641 C   0  0  0  0  0  0  0  0  0  0  0  0
    7.2894   60.5705   22.1453 C   0  0  0  0  0  0  0  0  0  0  0  0
    2.5368   57.3386   21.4979 O   0  0  0  0  0  0  0  0  0  0  0  0
  1  6  2  0
  1 18  1  0
  2 11  1  0
  3 13  1  0
  3 19  4  0
  3 25  4  0
  4 24  1  0
  4 26  1  0
  5 14  4  0
  5 19  4  0
  6  7  1  0
  6 26  1  0
  7 12  1  0
  7 28  2  0
  8 11  2  0
  8 17  1  0
  8 27  1  0
  9 15  1  0
  9 22  1  0
 10 15  1  0
 11 20  1  0
 12 25  1  0
 14 21  4  0
 14 23  1  0
 15 23  1  0
 16 27  1  0
 18 20  1  0
 18 27  2  0
 20 26  2  0
 21 25  4  0
M  END
>  <zinc_id>  (1) 


$$$$
