
     RDKit          3D

 20 21  0  0  0  0  0  0  0  0999 V2000
    4.5609   60.9443   21.8000 C   0  0  0  0  0  0  0  0  0  0  0  0
    2.5843   52.6008   23.0175 O   0  0  0  0  0  0  0  0  0  0  0  0
    4.6855   59.4773   22.1403 C   0  0  0  0  0  0  0  0  0  0  0  0
    3.3246   53.7405   21.0342 C   0  0  0  0  0  0  0  0  0  0  0  0
    3.7863   61.6272   22.7529 O   0  0  0  0  0  0  0  0  0  0  0  0
    5.2078   56.1712   20.2771 C   0  0  0  0  0  0  0  0  0  0  0  0
    4.6712   59.0255   23.4679 C   0  0  0  0  0  0  0  0  0  0  0  0
    1.9407   55.7378   21.2139 C   0  0  0  0  0  0  0  0  0  0  0  0
    2.0900   51.2107   24.8912 C   0  0  0  0  0  0  0  0  0  0  0  0
    5.0164   56.7488   22.7329 C   0  0  0  0  0  0  0  0  0  0  0  0
    3.9411   55.7411   19.5059 C   0  0  0  0  0  0  0  0  0  0  0  0
    2.8444   54.9560   20.2451 C   0  0  0  0  0  0  0  0  0  0  0  0
    2.1467   53.4315   21.9518 C   0  0  0  0  0  0  0  0  0  0  0  0
    4.8740   58.5349   21.1144 C   0  0  0  0  0  0  0  0  0  0  0  0
    1.5132   52.1295   23.8321 C   0  0  0  0  0  0  0  0  0  0  0  0
    1.7141   54.8198   22.4144 C   0  0  0  0  0  0  0  0  0  0  0  0
    4.8359   57.6721   23.7618 C   0  0  0  0  0  0  0  0  0  0  0  0
    5.8471   61.5985   21.7825 N   0  0  0  0  0  0  0  0  0  0  0  0
    3.3588   56.8570   18.8256 O   0  0  0  0  0  0  0  0  0  0  0  0
    5.0244   57.1674   21.3971 C   0  0  0  0  0  0  0  0  0  0  0  0
  1  3  1  0
  1  5  1  0
  1 18  1  0
  2 13  1  0
  2 15  1  0
  3  7  4  0
  3 14  4  0
  4 12  1  0
  4 13  1  0
  6 11  1  0
  6 20  1  0
  7 17  4  0
  8 12  1  0
  8 16  1  0
  9 15  1  0
 10 17  4  0
 10 20  4  0
 11 12  1  0
 11 19  1  0
 13 16  1  0
 14 20  4  0
M  END
>  <zinc_id>  (1) 


$$$$
