MODEL 1
REMARK VINA RESULT:      -6.8      0.000      0.000
REMARK  Name = 5d3h_ligand
REMARK  15 active torsions:
REMARK  status: ('A' for Active; 'I' for Inactive)
REMARK    1  A    between atoms: C_1  and  N_23
REMARK    2  A    between atoms: C_3  and  C_9
REMARK    3  A    between atoms: C_4  and  C_5
REMARK    4  A    between atoms: C_5  and  C_6
REMARK    5  A    between atoms: C_7  and  C_12
REMARK    6  A    between atoms: C_8  and  C_19
REMARK    7  A    between atoms: C_10  and  C_11
REMARK    8  A    between atoms: C_10  and  N_24
REMARK    9  A    between atoms: C_12  and  C_14
REMARK   10  A    between atoms: C_14  and  O_30
REMARK   11  A    between atoms: C_17  and  O_28
REMARK   12  A    between atoms: C_18  and  S_29
REMARK   13  A    between atoms: C_20  and  C_21
REMARK   14  A    between atoms: C_21  and  N_24
REMARK   15  A    between atoms: N_24  and  S_29
REMARK                            x       y       z     vdW  Elec       q    Type
REMARK                         _______ _______ _______ _____ _____    ______ ____
ROOT
ATOM      1  C   UNL     1       4.292  56.793  20.911  0.00  0.00    +0.000 C 
ATOM      2  N   UNL     1       4.309  55.897  21.899  0.00  0.00    +0.000 N 
ATOM      3  O   UNL     1       3.596  56.632  19.922  0.00  0.00    +0.000 OA
ATOM      4  H   UNL     1       5.019  55.991  22.574  0.00  0.00    +0.000 HD
ENDROOT
BRANCH   1   5
ATOM      5  C   UNL     1       5.044  58.085  20.953  0.00  0.00    +0.000 A 
ATOM      6  C   UNL     1       4.647  59.317  21.713  0.00  0.00    +0.000 A 
ATOM      7  C   UNL     1       5.647  60.230  21.389  0.00  0.00    +0.000 A 
ATOM      8  C   UNL     1       6.612  59.567  20.463  0.00  0.00    +0.000 A 
ATOM      9  C   UNL     1       7.874  60.055  19.795  0.00  0.00    +0.000 C 
ATOM     10  N   UNL     1       6.163  58.322  20.258  0.00  0.00    +0.000 N 
ATOM     11  H   UNL     1       6.600  57.664  19.671  0.00  0.00    +0.000 HD
BRANCH   6  13
ATOM     12  C   UNL     1       3.811  59.342  24.087  0.00  0.00    +0.000 C 
ATOM     13  C   UNL     1       3.445  59.521  22.617  0.00  0.00    +0.000 C 
ENDBRANCH   6  13
BRANCH   7  14
ATOM     14  C   UNL     1       5.746  61.646  21.878  0.00  0.00    +0.000 C 
ATOM     15  O   UNL     1       5.870  61.915  23.060  0.00  0.00    +0.000 OA
BRANCH  14  16
ATOM     16  C   UNL     1       5.676  62.719  20.833  0.00  0.00    +0.000 C 
BRANCH  16  17
ATOM     17  O   UNL     1       6.921  63.308  20.496  0.00  0.00    +0.000 OA
ATOM     18  H   UNL     1       6.891  63.623  19.579  0.00  0.00    +0.000 HD
ENDBRANCH  16  17
ENDBRANCH  14  16
ENDBRANCH   7  14
ENDBRANCH   1   5
BRANCH   2  19
ATOM     19  C   UNL     1       3.430  54.858  22.062  0.00  0.00    +0.000 A 
ATOM     20  C   UNL     1       3.310  53.724  21.233  0.00  0.00    +0.000 A 
ATOM     21  C   UNL     1       1.681  53.975  23.483  0.00  0.00    +0.000 A 
ATOM     22  C   UNL     1       1.571  52.857  22.655  0.00  0.00    +0.000 A 
ATOM     23  C   UNL     1       2.602  54.973  23.181  0.00  0.00    +0.000 A 
ATOM     24  C   UNL     1       2.380  52.704  21.523  0.00  0.00    +0.000 A 
BRANCH  24  27
ATOM     25  O   UNL     1       0.899  50.810  20.599  0.00  0.00    +0.000 OA
ATOM     26  O   UNL     1       2.504  51.731  19.218  0.00  0.00    +0.000 OA
ATOM     27  S   UNL     1       2.239  51.386  20.577  0.00  0.00    +0.000 S 
BRANCH  27  28
ATOM     28  N   UNL     1       3.236  50.336  21.046  0.00  0.00    +0.000 NA
BRANCH  28  29
ATOM     29  C   UNL     1       2.812  49.349  22.045  0.00  0.00    +0.000 C 
ATOM     30  C   UNL     1       3.563  49.479  23.347  0.00  0.00    +0.000 C 
ENDBRANCH  28  29
BRANCH  28  32
ATOM     31  C   UNL     1       4.684  48.975  19.727  0.00  0.00    +0.000 C 
ATOM     32  C   UNL     1       4.570  50.282  20.461  0.00  0.00    +0.000 C 
ENDBRANCH  28  32
ENDBRANCH  27  28
ENDBRANCH  24  27
BRANCH  23  33
ATOM     33  O   UNL     1       2.699  56.084  23.969  0.00  0.00    +0.000 OA
ATOM     34  H   UNL     1       2.066  56.770  23.892  0.00  0.00    +0.000 HD
ENDBRANCH  23  33
ENDBRANCH   2  19
TORSDOF 11
ENDMDL

