5d3h_ligand
 OpenBabel12172412113D

 34 35  0  0  0  0  0  0  0  0999 V2000
    4.2920   56.7930   20.9110 C   0  0  0  0  0  0  0  0  0  0  0  0
    4.3090   55.8970   21.8990 N   0  0  0  0  0  0  0  0  0  0  0  0
    3.5960   56.6320   19.9220 O   0  0  0  0  0  0  0  0  0  0  0  0
    5.0190   55.9910   22.5740 H   0  0  0  0  0  0  0  0  0  0  0  0
    5.0440   58.0850   20.9530 C   0  0  0  0  0  0  0  0  0  0  0  0
    4.6470   59.3170   21.7130 C   0  0  0  0  0  0  0  0  0  0  0  0
    5.6470   60.2300   21.3890 C   0  0  0  0  0  0  0  0  0  0  0  0
    6.6120   59.5670   20.4630 C   0  0  0  0  0  0  0  0  0  0  0  0
    7.8740   60.0550   19.7950 C   0  0  0  0  0  1  0  0  0  0  0  0
    6.1630   58.3220   20.2580 N   0  0  0  0  0  0  0  0  0  0  0  0
    6.6000   57.6640   19.6710 H   0  0  0  0  0  0  0  0  0  0  0  0
    3.8110   59.3420   24.0870 C   0  0  0  0  0  1  0  0  0  0  0  0
    3.4450   59.5210   22.6170 C   0  0  0  0  0  2  0  0  0  0  0  0
    5.7460   61.6460   21.8780 C   0  0  0  0  0  0  0  0  0  0  0  0
    5.8700   61.9150   23.0600 O   0  0  0  0  0  0  0  0  0  0  0  0
    5.6760   62.7190   20.8330 C   0  0  0  0  0  2  0  0  0  0  0  0
    6.9210   63.3080   20.4960 O   0  0  0  0  0  0  0  0  0  0  0  0
    6.8910   63.6230   19.5790 H   0  0  0  0  0  0  0  0  0  0  0  0
    3.4300   54.8580   22.0620 C   0  0  0  0  0  0  0  0  0  0  0  0
    3.3100   53.7240   21.2330 C   0  0  0  0  0  3  0  0  0  0  0  0
    1.6810   53.9750   23.4830 C   0  0  0  0  0  3  0  0  0  0  0  0
    1.5710   52.8570   22.6550 C   0  0  0  0  0  3  0  0  0  0  0  0
    2.6020   54.9730   23.1810 C   0  0  0  0  0  0  0  0  0  0  0  0
    2.3800   52.7040   21.5230 C   0  0  0  0  0  0  0  0  0  0  0  0
    0.8990   50.8100   20.5990 O   0  0  0  0  0  0  0  0  0  0  0  0
    2.5040   51.7310   19.2180 O   0  0  0  0  0  0  0  0  0  0  0  0
    2.2390   51.3860   20.5770 S   0  0  0  0  0  0  0  0  0  0  0  0
    3.2360   50.3360   21.0460 N   0  0  0  0  0  0  0  0  0  0  0  0
    2.8120   49.3490   22.0450 C   0  0  0  0  0  2  0  0  0  0  0  0
    3.5630   49.4790   23.3470 C   0  0  0  0  0  1  0  0  0  0  0  0
    4.6840   48.9750   19.7270 C   0  0  0  0  0  1  0  0  0  0  0  0
    4.5700   50.2820   20.4610 C   0  0  0  0  0  2  0  0  0  0  0  0
    2.6990   56.0840   23.9690 O   0  0  0  0  0  0  0  0  0  0  0  0
    2.0660   56.7700   23.8920 H   0  0  0  0  0  0  0  0  0  0  0  0
  1  5  1  0  0  0  0
  1  2  1  0  0  0  0
  2 19  1  0  0  0  0
  2  4  1  0  0  0  0
  3  1  2  0  0  0  0
  5  6  2  0  0  0  0
  6 13  1  0  0  0  0
  7  6  1  0  0  0  0
  7 14  1  0  0  0  0
  8  7  2  0  0  0  0
  9  8  1  0  0  0  0
 10  8  1  0  0  0  0
 10  5  1  0  0  0  0
 11 10  1  0  0  0  0
 13 12  1  0  0  0  0
 14 15  2  0  0  0  0
 16 14  1  0  0  0  0
 17 16  1  0  0  0  0
 18 17  1  0  0  0  0
 19 23  1  0  0  0  0
 20 24  1  0  0  0  0
 20 19  2  0  0  0  0
 22 21  1  0  0  0  0
 23 21  2  0  0  0  0
 23 33  1  0  0  0  0
 24 22  2  0  0  0  0
 26 27  2  0  0  0  0
 27 25  2  0  0  0  0
 27 28  1  0  0  0  0
 27 24  1  0  0  0  0
 28 29  1  0  0  0  0
 29 30  1  0  0  0  0
 31 32  1  0  0  0  0
 32 28  1  0  0  0  0
 34 33  1  0  0  0  0
M  END
>  <MODEL>
1

>  <REMARK>
 VINA RESULT:      -6.8      0.000      0.000
  Name = 5d3h_ligand
  15 active torsions:
  status: ('A' for Active; 'I' for Inactive)
    1  A    between atoms: C_1  and  N_23
    2  A    between atoms: C_3  and  C_9
    3  A    between atoms: C_4  and  C_5
    4  A    between atoms: C_5  and  C_6
    5  A    between atoms: C_7  and  C_12
    6  A    between atoms: C_8  and  C_19
    7  A    between atoms: C_10  and  C_11
    8  A    between atoms: C_10  and  N_24
    9  A    between atoms: C_12  and  C_14
   10  A    between atoms: C_14  and  O_30
   11  A    between atoms: C_17  and  O_28
   12  A    between atoms: C_18  and  S_29
   13  A    between atoms: C_20  and  C_21
   14  A    between atoms: C_21  and  N_24
   15  A    between atoms: N_24  and  S_29
                            x       y       z     vdW  Elec       q    Type
                         _______ _______ _______ _____ _____    ______ ____

>  <TORSDO>
F 11

$$$$
