=
 OpenBabel12172412113D

 31 32  0  0  1  0  0  0  0  0999 V2000
    4.1110   59.1440   21.7870 C   0  0  1  0  0  3  0  0  0  0  0  0
    4.0610   56.4490   24.4280 C   0  0  1  0  0  3  0  0  0  0  0  0
    4.6220   58.1590   22.8710 C   0  0  1  0  0  3  0  0  0  0  0  0
    2.8270   56.0890   25.2420 C   0  0  0  0  0  1  0  0  0  0  0  0
    4.9590   58.7200   24.2630 C   0  0  2  0  0  3  0  0  0  0  0  0
    3.6210   57.1230   23.1980 N   0  0  0  0  0  4  0  0  0  0  0  0
    5.1100   57.3990   25.0590 C   0  0  1  0  0  3  0  0  0  0  0  0
    3.9200   59.6860   24.8330 C   0  0  0  0  0  1  0  0  0  0  0  0
    2.7090   57.5560   23.3450 H   0  0  0  0  0  0  0  0  0  0  0  0
    3.5370   56.4540   22.4330 H   0  0  0  0  0  0  0  0  0  0  0  0
    5.1980   57.5100   26.5860 C   0  0  1  0  0  3  0  0  0  0  0  0
    5.1770   56.2540   27.2420 O   0  0  0  0  0  0  0  0  0  0  0  0
    5.0410   55.5500   26.5890 H   0  0  0  0  0  0  0  0  0  0  0  0
    6.4290   58.3130   26.9910 C   0  0  0  0  0  3  0  0  0  0  0  0
    7.5740   57.8850   26.8580 O   0  0  0  0  0  0  0  0  0  0  0  0
    4.9920   61.5600   21.6640 C   0  0  0  0  0  0  0  0  0  0  0  0
    7.0490   62.0650   20.4810 C   0  0  0  0  0  3  0  0  0  0  0  0
    6.2300   59.8000   20.5940 C   0  0  0  0  0  3  0  0  0  0  0  0
    5.9470   62.4820   21.2280 C   0  0  0  0  0  3  0  0  0  0  0  0
    7.1840   60.7210   20.1520 C   0  0  0  0  0  0  0  0  0  0  0  0
    5.1180   60.1960   21.3680 C   0  0  0  0  0  0  0  0  0  0  0  0
    3.9600   62.1070   22.3720 O   0  0  0  0  0  0  0  0  0  0  0  0
    3.9410   63.0290   22.5360 H   0  0  0  0  0  0  0  0  0  0  0  0
    8.2260   60.2030   19.4190 O   0  0  0  0  0  0  0  0  0  0  0  0
    7.7120   59.1410   18.5580 O   0  0  0  0  0  0  0  0  0  0  0  0
    8.1580   58.3360   16.2960 C   0  0  0  0  0  1  0  0  0  0  0  0
    7.9280   59.5470   17.1970 C   0  0  2  0  0  3  0  0  0  0  0  0
    9.0360   60.6050   17.1210 C   0  0  0  0  0  2  0  0  0  0  0  0
    8.7130   61.7530   16.1770 C   0  0  0  0  0  1  0  0  0  0  0  0
    3.7680   58.3810   20.6130 O   0  0  0  0  0  0  0  0  0  0  0  0
    4.5090   58.4010   19.9870 H   0  0  0  0  0  0  0  0  0  0  0  0
  1 30  1  6  0  0  0
  2  7  1  0  0  0  0
  2  4  1  1  0  0  0
  3  1  1  6  0  0  0
  3  6  1  0  0  0  0
  3  5  1  0  0  0  0
  5  8  1  1  0  0  0
  5  7  1  0  0  0  0
  6  9  1  0  0  0  0
  6  2  1  0  0  0  0
  7 11  1  1  0  0  0
 10  6  1  0  0  0  0
 11 14  1  6  0  0  0
 11 12  1  0  0  0  0
 13 12  1  0  0  0  0
 15 14  2  0  0  0  0
 16 22  1  0  0  0  0
 17 19  1  0  0  0  0
 18 21  2  0  0  0  0
 19 16  2  0  0  0  0
 20 17  2  0  0  0  0
 20 18  1  0  0  0  0
 21 16  1  0  0  0  0
 21  1  1  0  0  0  0
 22 23  1  0  0  0  0
 24 20  1  0  0  0  0
 25 24  1  0  0  0  0
 27 26  1  6  0  0  0
 27 25  1  0  0  0  0
 28 27  1  0  0  0  0
 29 28  1  0  0  0  0
 31 30  1  0  0  0  0
M  END
>  <MODEL>
1

>  <REMARK>
 VINA RESULT:      -6.7      0.000      0.000
  Name = 
  15 active torsions:
  status: ('A' for Active; 'I' for Inactive)
    1  A    between atoms: C_1  and  C_6
    2  A    between atoms: C_1  and  O_18
    3  A    between atoms: C_1  and  C_26
    4  A    between atoms: C_2  and  O_20
    5  A    between atoms: C_3  and  C_14
    6  A    between atoms: C_3  and  C_15
    7  A    between atoms: O_4  and  C_12
    8  A    between atoms: C_5  and  C_9
    9  A    between atoms: C_7  and  C_12
   10  A    between atoms: C_8  and  C_15
   11  A    between atoms: C_10  and  C_24
   12  A    between atoms: C_12  and  C_23
   13  A    between atoms: C_15  and  O_17
   14  A    between atoms: O_16  and  O_17
   15  A    between atoms: O_16  and  C_25
                            x       y       z     vdW  Elec       q    Type
                         _______ _______ _______ _____ _____    ______ ____

>  <TORSDO>
F 11

$$$$
=
 OpenBabel12172412123D

 33 35  0  0  1  0  0  0  0  0999 V2000
    4.6260   56.8390   21.6540 C   0  0  0  0  0  0  0  0  0  0  0  0
    4.0370   56.3340   20.5150 N   0  0  0  0  0  0  0  0  0  0  0  0
    4.7330   56.3240   22.7520 O   0  0  0  0  0  0  0  0  0  0  0  0
    4.1110   56.8940   19.7090 H   0  0  0  0  0  0  0  0  0  0  0  0
    6.0730   58.3960   20.4190 N   0  0  0  0  0  0  0  0  0  0  0  0
    5.2100   58.2190   21.4000 C   0  0  0  0  0  0  0  0  0  0  0  0
    6.8190   61.9350   20.5860 C   0  0  0  0  0  0  0  0  0  0  0  0
    5.9410   61.7200   21.5920 C   0  0  0  0  0  0  0  0  0  0  0  0
    7.9630   60.4950   18.7190 C   0  0  0  0  0  1  0  0  0  0  0  0
    6.3400   59.7200   20.5090 C   0  0  0  0  0  0  0  0  0  0  0  0
    5.6060   60.3290   21.5790 C   0  0  0  0  0  0  0  0  0  0  0  0
    4.8530   59.4240   22.2050 C   0  0  0  0  0  0  0  0  0  0  0  0
    7.0710   60.6530   19.8930 C   0  0  0  0  0  0  0  0  0  0  0  0
    7.4240   63.1100   20.2280 N   0  0  0  0  0  0  0  0  0  0  0  0
    6.8950   63.9390   20.1720 H   0  0  0  0  0  0  0  0  0  0  0  0
    8.3890   63.1270   20.0290 H   0  0  0  0  0  0  0  0  0  0  0  0
    5.4770   62.6210   22.4980 O   0  0  0  0  0  0  0  0  0  0  0  0
    5.6680   63.5320   22.3940 H   0  0  0  0  0  0  0  0  0  0  0  0
    3.8830   59.5240   23.3190 C   0  0  0  0  0  2  0  0  0  0  0  0
    4.5680   59.5000   24.6770 C   0  0  0  0  0  1  0  0  0  0  0  0
    2.4440   55.0050   19.2920 C   0  0  0  0  0  0  0  0  0  0  0  0
    1.7930   52.7990   20.0120 C   0  0  0  0  0  3  0  0  0  0  0  0
    2.7010   52.8780   21.0680 C   0  0  0  0  0  0  0  0  0  0  0  0
    1.6610   53.8680   19.1230 C   0  0  0  0  0  3  0  0  0  0  0  0
    3.4770   54.0360   21.2310 C   0  0  0  0  0  3  0  0  0  0  0  0
    3.3440   55.1190   20.3590 C   0  0  0  0  0  0  0  0  0  0  0  0
    2.3190   55.9890   18.3490 O   0  0  0  0  0  0  0  0  0  0  0  0
    1.7390   56.7100   18.4990 H   0  0  0  0  0  0  0  0  0  0  0  0
    2.9400   51.9050   21.9980 O   0  0  0  0  0  0  0  0  0  0  0  0
    3.1670   49.7050   22.8420 C   0  0  0  0  0  1  0  0  0  0  0  0
    3.1080   50.5470   21.5670 C   0  0  2  0  0  3  0  0  0  0  0  0
    4.4050   50.4350   20.7520 C   0  0  0  0  0  2  0  0  0  0  0  0
    4.3670   49.3400   19.6980 C   0  0  0  0  0  1  0  0  0  0  0  0
  1  3  2  0  0  0  0
  2  1  1  0  0  0  0
  4  2  1  0  0  0  0
  5 10  2  0  0  0  0
  5  6  1  0  0  0  0
  6  1  1  0  0  0  0
  6 12  2  0  0  0  0
  7  8  1  0  0  0  0
  8 17  1  0  0  0  0
  9 13  1  0  0  0  0
 10 11  1  0  0  0  0
 11  8  2  0  0  0  0
 11 12  1  0  0  0  0
 12 19  1  0  0  0  0
 13 10  1  0  0  0  0
 13  7  2  0  0  0  0
 14  7  1  0  0  0  0
 15 14  1  0  0  0  0
 16 14  1  0  0  0  0
 18 17  1  0  0  0  0
 19 20  1  0  0  0  0
 21 26  1  0  0  0  0
 22 23  2  0  0  0  0
 23 25  1  0  0  0  0
 23 29  1  0  0  0  0
 24 21  2  0  0  0  0
 24 22  1  0  0  0  0
 26  2  1  0  0  0  0
 26 25  2  0  0  0  0
 27 28  1  0  0  0  0
 27 21  1  0  0  0  0
 31 29  1  0  0  0  0
 31 30  1  1  0  0  0
 32 31  1  0  0  0  0
 33 32  1  0  0  0  0
M  END
>  <MODEL>
1

>  <REMARK>
 VINA RESULT:      -8.1      0.000      0.000
  Name = 
  13 active torsions:
  status: ('A' for Active; 'I' for Inactive)
    1  A    between atoms: O_2  and  C_11
    2  A    between atoms: C_3  and  O_13
    3  A    between atoms: C_4  and  C_24
    4  A    between atoms: C_4  and  C_26
    5  A    between atoms: C_6  and  C_7
    6  A    between atoms: C_8  and  N_17
    7  A    between atoms: C_9  and  C_15
    8  A    between atoms: C_9  and  C_22
    9  A    between atoms: C_10  and  C_15
   10  A    between atoms: N_12  and  C_25
   11  A    between atoms: C_14  and  O_23
   12  A    between atoms: C_15  and  O_23
   13  A    between atoms: C_16  and  C_27
                            x       y       z     vdW  Elec       q    Type
                         _______ _______ _______ _____ _____    ______ ____

>  <TORSDO>
F 9

$$$$

     RDKit          2D

  1  0  0  0  0  0  0  0  0  0999 V2000
    0.0000    0.0000    0.0000 C   0  0  0  0  0  0  0  0  0  0  0  0
M  END
$$$$
=
 OpenBabel12172412133D

 36 38  0  0  1  0  0  0  0  0999 V2000
    3.6810   59.8370   22.7780 O   0  0  0  0  0  0  0  0  0  0  0  0
    4.7240   59.2250   22.5710 C   0  0  0  0  0  0  0  0  0  0  0  0
    7.3690   62.0910   19.4170 C   0  0  0  0  0  0  0  0  0  0  0  0
    6.1630   58.8300   20.6210 N   0  0  0  0  0  0  0  0  0  0  0  0
    6.6810   61.0070   20.1510 C   0  0  0  0  0  0  0  0  0  0  0  0
    8.2110   61.6300   18.2460 C   0  0  2  0  0  3  0  0  0  0  0  0
    7.6380   59.2900   18.7390 C   0  0  0  0  0  3  0  0  0  0  0  0
    5.8670   61.1070   21.2040 C   0  0  0  0  0  0  0  0  0  0  0  0
    8.3090   60.3160   17.9640 C   0  0  0  0  0  3  0  0  0  0  0  0
    5.5980   59.6780   21.4430 C   0  0  2  0  0  3  0  0  0  0  0  0
    6.8680   59.6360   19.7720 C   0  0  0  0  0  0  0  0  0  0  0  0
    7.2670   63.2680   19.7500 O   0  0  0  0  0  0  0  0  0  0  0  0
    8.8620   62.5970   17.5010 O   0  0  0  0  0  0  0  0  0  0  0  0
    9.6670   62.3910   17.0690 H   0  0  0  0  0  0  0  0  0  0  0  0
    5.3620   62.2660   21.9650 C   0  0  0  0  0  2  0  0  0  0  0  0
    3.9960   62.6210   21.5490 N   0  0  0  0  0  4  0  0  0  0  0  0
    4.0380   63.3260   20.8130 H   0  0  0  0  0  0  0  0  0  0  0  0
    3.4840   62.9940   22.3480 H   0  0  0  0  0  0  0  0  0  0  0  0
    3.5210   61.7900   21.1980 H   0  0  0  0  0  0  0  0  0  0  0  0
    5.2350   58.0690   23.3920 C   0  0  0  0  0  2  0  0  0  0  0  0
    4.3170   56.8770   23.2970 C   0  0  0  0  0  0  0  0  0  0  0  0
    2.5280   55.5270   24.2080 C   0  0  0  0  0  3  0  0  0  0  0  0
    2.5420   54.7290   23.0590 C   0  0  0  0  0  3  0  0  0  0  0  0
    3.4340   54.9720   22.0020 C   0  0  0  0  0  0  0  0  0  0  0  0
    3.4130   56.5890   24.3150 C   0  0  0  0  0  0  0  0  0  0  0  0
    4.3090   56.0680   22.1470 C   0  0  0  0  0  3  0  0  0  0  0  0
    3.3970   57.3750   25.4290 O   0  0  0  0  0  0  0  0  0  0  0  0
    3.4700   58.3060   25.3460 H   0  0  0  0  0  0  0  0  0  0  0  0
    3.4480   54.2140   20.8190 N   0  0  0  0  0  0  0  0  0  0  0  0
    4.4200   53.2190   20.6460 O   0  0  0  0  0  0  0  0  0  0  0  0
    4.6100   52.8010   21.5010 H   0  0  0  0  0  0  0  0  0  0  0  0
    2.2500   53.9460   20.0100 C   0  0  1  0  0  3  0  0  0  0  0  0
    2.1280   54.8650   18.7930 C   0  0  0  0  0  2  0  0  0  0  0  0
    3.1860   55.9620   18.8000 C   0  0  0  0  0  1  0  0  0  0  0  0
    2.2230   52.5770   19.6440 O   0  0  0  0  0  0  0  0  0  0  0  0
    1.8960   52.4910   18.7350 H   0  0  0  0  0  0  0  0  0  0  0  0
  2  1  2  0  0  0  0
  2 20  1  0  0  0  0
  3 12  2  0  0  0  0
  3  5  1  0  0  0  0
  4 10  1  0  0  0  0
  5  8  2  0  0  0  0
  6 13  1  1  0  0  0
  6  3  1  0  0  0  0
  7 11  1  0  0  0  0
  8 10  1  0  0  0  0
  8 15  1  0  0  0  0
  9  6  1  0  0  0  0
  9  7  2  0  0  0  0
 10  2  1  1  0  0  0
 11  5  1  0  0  0  0
 11  4  2  0  0  0  0
 14 13  1  0  0  0  0
 16 15  1  0  0  0  0
 16 18  1  0  0  0  0
 17 16  1  0  0  0  0
 19 16  1  0  0  0  0
 21 20  1  0  0  0  0
 21 25  1  0  0  0  0
 22 25  2  0  0  0  0
 23 22  1  0  0  0  0
 24 26  1  0  0  0  0
 24 23  2  0  0  0  0
 25 27  1  0  0  0  0
 26 21  2  0  0  0  0
 28 27  1  0  0  0  0
 29 24  1  0  0  0  0
 30 29  1  0  0  0  0
 30 31  1  0  0  0  0
 32 33  1  6  0  0  0
 32 29  1  0  0  0  0
 33 34  1  0  0  0  0
 35 32  1  0  0  0  0
 36 35  1  0  0  0  0
M  END
>  <MODEL>
1

>  <REMARK>
 VINA RESULT:      -7.8      0.000      0.000
  Name = 
  13 active torsions:
  status: ('A' for Active; 'I' for Inactive)
    1  A    between atoms: C_1  and  C_11
    2  A    between atoms: C_2  and  C_14
    3  A    between atoms: C_2  and  O_19
    4  A    between atoms: C_2  and  N_25
    5  A    between atoms: C_8  and  O_9
    6  A    between atoms: C_11  and  C_29
    7  A    between atoms: O_12  and  C_22
    8  A    between atoms: C_13  and  C_23
    9  A    between atoms: C_14  and  C_26
   10  A    between atoms: O_17  and  N_25
   11  A    between atoms: N_18  and  C_23
   12  A    between atoms: C_20  and  C_29
   13  A    between atoms: C_21  and  N_25
                            x       y       z     vdW  Elec       q    Type
                         _______ _______ _______ _____ _____    ______ ____

>  <TORSDO>
F 12

$$$$
=
 OpenBabel12172412143D

 33 35  0  0  1  0  0  0  0  0999 V2000
    3.9900   59.8420   21.8230 C   0  0  1  0  0  3  0  0  0  0  0  0
    5.9710   58.0670   27.3460 F   0  0  0  0  0  0  0  0  0  0  0  0
    3.5610   57.7950   24.8920 C   0  0  1  0  0  3  0  0  0  0  0  0
    5.3340   58.7320   23.6520 N   0  0  0  0  0  4  0  0  0  0  0  0
    4.8650   57.4360   24.1690 C   0  0  2  0  0  0  0  0  0  0  0  0
    4.0100   58.2820   26.2120 N   0  0  0  0  0  4  0  0  0  0  0  0
    4.1480   59.5840   23.3530 C   0  0  2  0  0  3  0  0  0  0  0  0
    4.7060   56.4130   23.0470 C   0  0  0  0  0  1  0  0  0  0  0  0
    2.9360   58.8630   23.9830 C   0  0  2  0  0  3  0  0  0  0  0  0
    5.0970   57.3780   26.5760 C   0  0  1  0  0  3  0  0  0  0  0  0
    5.7740   56.9320   25.2890 C   0  0  0  0  0  2  0  0  0  0  0  0
    5.8750   58.5870   22.8000 H   0  0  0  0  0  0  0  0  0  0  0  0
    5.9250   59.1900   24.3460 H   0  0  0  0  0  0  0  0  0  0  0  0
    3.2530   58.2310   26.8940 H   0  0  0  0  0  0  0  0  0  0  0  0
    4.3050   59.2580   26.1890 H   0  0  0  0  0  0  0  0  0  0  0  0
    1.9410   59.8090   24.6690 C   0  0  0  0  0  2  0  0  0  0  0  0
    0.6680   59.1040   25.1140 C   0  0  0  0  0  1  0  0  0  0  0  0
    5.0870   60.7040   21.2350 C   0  0  0  0  0  0  0  0  0  0  0  0
    7.1910   60.8860   20.0150 C   0  0  0  0  0  0  0  0  0  0  0  0
    6.0980   62.8810   20.8280 C   0  0  0  0  0  3  0  0  0  0  0  0
    6.1680   60.1080   20.5610 C   0  0  0  0  0  3  0  0  0  0  0  0
    7.1600   62.2730   20.1570 C   0  0  0  0  0  3  0  0  0  0  0  0
    5.0730   62.0980   21.3590 C   0  0  0  0  0  0  0  0  0  0  0  0
    4.0420   62.6930   22.0280 O   0  0  0  0  0  0  0  0  0  0  0  0
    4.1850   63.0650   22.8760 H   0  0  0  0  0  0  0  0  0  0  0  0
    8.2070   60.2050   19.3890 O   0  0  0  0  0  0  0  0  0  0  0  0
    7.6170   59.1640   18.5520 O   0  0  0  0  0  0  0  0  0  0  0  0
    8.1020   58.3060   16.3920 C   0  0  0  0  0  1  0  0  0  0  0  0
    7.8340   59.5750   17.1940 C   0  0  2  0  0  3  0  0  0  0  0  0
    9.0080   60.5600   17.1570 C   0  0  0  0  0  2  0  0  0  0  0  0
    8.7580   61.7770   16.2810 C   0  0  0  0  0  1  0  0  0  0  0  0
    3.9680   58.5780   21.1320 O   0  0  0  0  0  0  0  0  0  0  0  0
    3.6900   58.7160   20.2130 H   0  0  0  0  0  0  0  0  0  0  0  0
  1 32  1  6  0  0  0
  3  6  1  1  0  0  0
  4  5  1  0  0  0  0
  4 13  1  0  0  0  0
  5  8  1  6  0  0  0
  5  3  1  0  0  0  0
  5 11  1  0  0  0  0
  6 10  1  0  0  0  0
  6 14  1  0  0  0  0
  7  1  1  6  0  0  0
  7  4  1  0  0  0  0
  7  9  1  0  0  0  0
  9 16  1  1  0  0  0
  9  3  1  0  0  0  0
 10  2  1  1  0  0  0
 11 10  1  0  0  0  0
 12  4  1  0  0  0  0
 15  6  1  0  0  0  0
 16 17  1  0  0  0  0
 18 23  1  0  0  0  0
 18  1  1  0  0  0  0
 19 22  2  0  0  0  0
 19 21  1  0  0  0  0
 20 23  2  0  0  0  0
 21 18  2  0  0  0  0
 22 20  1  0  0  0  0
 23 24  1  0  0  0  0
 24 25  1  0  0  0  0
 26 19  1  0  0  0  0
 27 26  1  0  0  0  0
 29 28  1  6  0  0  0
 29 27  1  0  0  0  0
 30 29  1  0  0  0  0
 31 30  1  0  0  0  0
 33 32  1  0  0  0  0
M  END
>  <MODEL>
1

>  <REMARK>
 VINA RESULT:      -7.4      0.000      0.000
  Name = 
  13 active torsions:
  status: ('A' for Active; 'I' for Inactive)
    1  A    between atoms: C_1  and  C_2
    2  A    between atoms: C_2  and  C_15
    3  A    between atoms: C_2  and  O_18
    4  A    between atoms: C_6  and  C_16
    5  A    between atoms: C_7  and  O_8
    6  A    between atoms: O_8  and  O_11
    7  A    between atoms: C_9  and  C_17
    8  A    between atoms: C_9  and  C_21
    9  A    between atoms: O_11  and  C_25
   10  A    between atoms: O_12  and  C_24
   11  A    between atoms: C_14  and  C_25
   12  A    between atoms: C_20  and  C_23
   13  A    between atoms: C_20  and  C_25
                            x       y       z     vdW  Elec       q    Type
                         _______ _______ _______ _____ _____    ______ ____

>  <TORSDO>
F 9

$$$$
=
 OpenBabel12172412143D

 33 34  0  0  1  0  0  0  0  0999 V2000
    5.1630   60.1600   23.3730 N   0  0  0  0  0  0  0  0  0  0  0  0
    3.2650   58.9990   22.6910 O   0  0  0  0  0  0  0  0  0  0  0  0
    4.0770   59.3310   23.5550 C   0  0  0  0  0  0  0  0  0  0  0  0
    5.6950   60.3410   24.1820 H   0  0  0  0  0  0  0  0  0  0  0  0
    3.9350   58.8120   25.0310 C   0  0  1  0  0  3  0  0  0  0  0  0
    5.0210   59.3570   25.8760 N   0  0  0  0  0  4  0  0  0  0  0  0
    3.0220   60.5940   26.1910 C   0  0  1  0  0  3  0  0  0  0  0  0
    1.9370   61.0410   27.1590 C   0  0  0  0  0  1  0  0  0  0  0  0
    4.3600   60.2740   26.8530 C   0  0  2  0  0  3  0  0  0  0  0  0
    2.6740   59.3000   25.6030 N   0  0  0  0  0  4  0  0  0  0  0  0
    5.7130   59.8680   25.3280 H   0  0  0  0  0  0  0  0  0  0  0  0
    2.3300   58.6580   26.3190 H   0  0  0  0  0  0  0  0  0  0  0  0
    1.9320   59.3720   24.9080 H   0  0  0  0  0  0  0  0  0  0  0  0
    5.2090   62.4960   26.2360 O   0  0  0  0  0  0  0  0  0  0  0  0
    5.1780   61.5470   27.0130 C   0  0  0  0  0  0  0  0  0  0  0  0
    6.0090   61.6620   28.2650 C   0  0  0  0  0  3  0  0  0  0  0  0
    7.1720   61.2920   28.2970 O   0  0  0  0  0  0  0  0  0  0  0  0
    5.7770   58.2780   26.5230 C   0  0  0  0  0  2  0  0  0  0  0  0
    5.9900   57.0790   25.6060 C   0  0  0  0  0  1  0  0  0  0  0  0
    5.3550   62.1530   22.0640 C   0  0  0  0  0  0  0  0  0  0  0  0
    6.4460   62.1920   19.9210 C   0  0  0  0  0  3  0  0  0  0  0  0
    6.7100   60.8260   20.0420 C   0  0  0  0  0  0  0  0  0  0  0  0
    6.3120   60.1240   21.1840 C   0  0  0  0  0  3  0  0  0  0  0  0
    5.6200   60.7820   22.2000 C   0  0  0  0  0  0  0  0  0  0  0  0
    5.7610   62.8610   20.9350 C   0  0  0  0  0  3  0  0  0  0  0  0
    4.6890   62.7910   23.0790 O   0  0  0  0  0  0  0  0  0  0  0  0
    4.1240   63.5140   22.8880 H   0  0  0  0  0  0  0  0  0  0  0  0
    7.4000   60.1040   19.0940 O   0  0  0  0  0  0  0  0  0  0  0  0
    8.4340   60.9690   18.5280 O   0  0  0  0  0  0  0  0  0  0  0  0
    8.7830   61.6480   16.2090 C   0  0  0  0  0  1  0  0  0  0  0  0
    8.7140   60.4910   17.2030 C   0  0  2  0  0  3  0  0  0  0  0  0
    8.3990   58.1540   16.2200 C   0  0  0  0  0  1  0  0  0  0  0  0
    7.7250   59.3840   16.8080 C   0  0  0  0  0  2  0  0  0  0  0  0
  1  3  1  0  0  0  0
  1  4  1  0  0  0  0
  2  3  2  0  0  0  0
  5  3  1  6  0  0  0
  5 10  1  0  0  0  0
  5  6  1  0  0  0  0
  6 18  1  0  0  0  0
  6  9  1  0  0  0  0
  7  9  1  0  0  0  0
  7  8  1  1  0  0  0
  9 15  1  6  0  0  0
 10  7  1  0  0  0  0
 10 12  1  0  0  0  0
 11  6  1  0  0  0  0
 13 10  1  0  0  0  0
 14 15  2  0  0  0  0
 15 16  1  0  0  0  0
 16 17  2  0  0  0  0
 19 18  1  0  0  0  0
 20 24  1  0  0  0  0
 20 26  1  0  0  0  0
 21 22  2  0  0  0  0
 21 25  1  0  0  0  0
 22 23  1  0  0  0  0
 23 24  2  0  0  0  0
 24  1  1  0  0  0  0
 25 20  2  0  0  0  0
 27 26  1  0  0  0  0
 28 22  1  0  0  0  0
 29 28  1  0  0  0  0
 31 30  1  6  0  0  0
 31 29  1  0  0  0  0
 32 33  1  0  0  0  0
 33 31  1  0  0  0  0
M  END
>  <MODEL>
1

>  <REMARK>
 VINA RESULT:      -6.4      0.000      0.000
  Name = 
  14 active torsions:
  status: ('A' for Active; 'I' for Inactive)
    1  A    between atoms: N_2  and  C_19
    2  A    between atoms: C_4  and  O_20
    3  A    between atoms: C_5  and  C_24
    4  A    between atoms: N_7  and  C_16
    5  A    between atoms: O_8  and  C_9
    6  A    between atoms: O_8  and  O_18
    7  A    between atoms: C_10  and  C_13
    8  A    between atoms: C_11  and  C_28
    9  A    between atoms: C_14  and  C_28
   10  A    between atoms: C_15  and  C_27
   11  A    between atoms: C_16  and  C_21
   12  A    between atoms: C_17  and  C_22
   13  A    between atoms: O_18  and  C_22
   14  A    between atoms: C_22  and  C_27
                            x       y       z     vdW  Elec       q    Type
                         _______ _______ _______ _____ _____    ______ ____

>  <TORSDO>
F 10

$$$$

     RDKit          2D

  1  0  0  0  0  0  0  0  0  0999 V2000
    0.0000    0.0000    0.0000 C   0  0  0  0  0  0  0  0  0  0  0  0
M  END
$$$$

     RDKit          2D

  1  0  0  0  0  0  0  0  0  0999 V2000
    0.0000    0.0000    0.0000 C   0  0  0  0  0  0  0  0  0  0  0  0
M  END
$$$$
=
 OpenBabel12172412153D

 39 40  0  0  1  0  0  0  0  0999 V2000
    6.5230   60.4860   20.8870 C   0  0  0  0  0  0  0  0  0  0  0  0
    5.5970   60.5190   21.9310 C   0  0  0  0  0  0  0  0  0  0  0  0
    5.9780   58.3040   20.3690 C   0  0  0  0  0  3  0  0  0  0  0  0
    5.0190   58.2180   21.3700 C   0  0  0  0  0  0  0  0  0  0  0  0
    6.7130   59.4080   20.1070 N   0  0  0  0  0  0  0  0  0  0  0  0
    4.8440   59.3570   22.1640 C   0  0  0  0  0  3  0  0  0  0  0  0
    7.3490   61.5690   20.5920 N   0  0  0  0  0  0  0  0  0  0  0  0
    7.3200   62.3770   21.1530 H   0  0  0  0  0  0  0  0  0  0  0  0
    7.9610   61.5260   19.8210 H   0  0  0  0  0  0  0  0  0  0  0  0
    5.4900   61.7150   22.8520 C   0  0  2  0  0  3  0  0  0  0  0  0
    4.2630   61.6050   23.8030 C   0  0  2  0  0  3  0  0  0  0  0  0
    3.4910   62.8730   23.8910 N   0  0  0  0  0  4  0  0  0  0  0  0
    3.4770   61.8730   26.0820 C   0  0  1  0  0  3  0  0  0  0  0  0
    4.6770   61.3610   25.2670 C   0  0  1  0  0  3  0  0  0  0  0  0
    2.4560   64.1740   25.7100 C   0  0  0  0  0  1  0  0  0  0  0  0
    2.6990   62.7850   25.1250 C   0  0  1  0  0  3  0  0  0  0  0  0
    2.8770   62.9700   23.0830 H   0  0  0  0  0  0  0  0  0  0  0  0
    4.1090   63.6850   23.9030 H   0  0  0  0  0  0  0  0  0  0  0  0
    2.5910   60.8060   26.7120 C   0  0  0  0  0  0  0  0  0  0  0  0
    2.7370   60.4830   27.8970 O   0  0  0  0  0  0  0  0  0  0  0  0
    1.5040   60.1330   25.8780 C   0  0  0  0  0  2  0  0  0  0  0  0
    0.2180   60.3890   26.4300 O   0  0  0  0  0  0  0  0  0  0  0  0
   -0.4110   60.5700   25.7140 H   0  0  0  0  0  0  0  0  0  0  0  0
    5.9250   59.6210   26.5810 C   0  0  0  0  0  2  0  0  0  0  0  0
    5.1390   59.9530   25.5480 C   0  0  0  0  0  3  0  0  0  0  0  0
    5.4110   62.9390   22.0980 O   0  0  0  0  0  0  0  0  0  0  0  0
    5.9550   63.6180   22.5250 H   0  0  0  0  0  0  0  0  0  0  0  0
    4.2670   56.9220   21.5960 C   0  0  2  0  0  3  0  0  0  0  0  0
    4.6280   56.3120   22.8310 O   0  0  0  0  0  0  0  0  0  0  0  0
    5.3320   56.8290   23.2540 H   0  0  0  0  0  0  0  0  0  0  0  0
    4.3540   55.9860   20.4750 N   0  0  0  0  0  4  0  0  0  0  0  0
    5.3180   56.0340   20.1470 H   0  0  0  0  0  0  0  0  0  0  0  0
    4.2030   54.5750   20.8580 C   0  0  0  0  0  2  0  0  0  0  0  0
    2.7630   54.0680   20.7920 C   0  0  0  0  0  1  0  0  0  0  0  0
    3.5490   56.4000   19.3390 C   0  0  0  0  0  2  0  0  0  0  0  0
    4.2140   56.1070   18.0910 N   0  0  0  0  0  4  0  0  0  0  0  0
    5.1460   55.7360   18.2810 H   0  0  0  0  0  0  0  0  0  0  0  0
    4.2930   56.9610   17.5380 H   0  0  0  0  0  0  0  0  0  0  0  0
    3.6730   55.4140   17.5720 H   0  0  0  0  0  0  0  0  0  0  0  0
  1  2  1  0  0  0  0
  2  6  2  0  0  0  0
  2 10  1  0  0  0  0
  3  4  2  0  0  0  0
  4 28  1  0  0  0  0
  4  6  1  0  0  0  0
  5  3  1  0  0  0  0
  5  1  2  0  0  0  0
  7  1  1  0  0  0  0
  7  8  1  0  0  0  0
  9  7  1  0  0  0  0
 10 26  1  6  0  0  0
 11 10  1  6  0  0  0
 11 12  1  0  0  0  0
 11 14  1  0  0  0  0
 12 18  1  0  0  0  0
 12 16  1  0  0  0  0
 13 19  1  6  0  0  0
 14 25  1  6  0  0  0
 14 13  1  0  0  0  0
 16 15  1  1  0  0  0
 16 13  1  0  0  0  0
 17 12  1  0  0  0  0
 19 20  2  0  0  0  0
 21 22  1  0  0  0  0
 21 19  1  0  0  0  0
 23 22  1  0  0  0  0
 25 24  2  0  0  0  0
 26 27  1  0  0  0  0
 28 29  1  1  0  0  0
 29 30  1  0  0  0  0
 31 33  1  0  0  0  0
 31 28  1  0  0  0  0
 32 31  1  0  0  0  0
 34 33  1  0  0  0  0
 35 31  1  0  0  0  0
 36 37  1  0  0  0  0
 36 35  1  0  0  0  0
 38 36  1  0  0  0  0
 39 36  1  0  0  0  0
M  END
>  <MODEL>
1

>  <REMARK>
 VINA RESULT:      -6.1      0.000      0.000
  Name = 
  16 active torsions:
  status: ('A' for Active; 'I' for Inactive)
    1  A    between atoms: C_1  and  C_7
    2  A    between atoms: C_2  and  C_11
    3  A    between atoms: C_2  and  C_21
    4  A    between atoms: C_3  and  N_18
    5  A    between atoms: C_5  and  C_7
    6  A    between atoms: C_7  and  O_9
    7  A    between atoms: O_8  and  C_21
    8  A    between atoms: C_10  and  N_20
    9  A    between atoms: C_10  and  N_28
   10  A    between atoms: C_12  and  C_22
   11  A    between atoms: C_12  and  N_28
   12  A    between atoms: C_13  and  C_24
   13  A    between atoms: C_14  and  C_27
   14  A    between atoms: O_15  and  C_24
   15  A    between atoms: C_19  and  C_23
   16  A    between atoms: C_24  and  N_28
                            x       y       z     vdW  Elec       q    Type
                         _______ _______ _______ _____ _____    ______ ____

>  <TORSDO>
F 14

$$$$
=
 OpenBabel12172412163D

 31 32  0  0  1  0  0  0  0  0999 V2000
    3.6930   60.2060   23.3660 C   0  0  0  0  0  0  0  0  0  0  0  0
    2.6370   59.7580   23.8180 O   0  0  0  0  0  0  0  0  0  0  0  0
    4.1170   61.9850   26.2960 C   0  0  1  0  0  3  0  0  0  0  0  0
    4.7500   60.8520   24.2830 C   0  0  1  0  0  3  0  0  0  0  0  0
    4.1790   60.4880   26.5840 C   0  0  1  0  0  3  0  0  0  0  0  0
    4.1670   62.1150   24.8220 N   0  0  0  0  0  4  0  0  0  0  0  0
    2.8770   62.6720   26.8570 C   0  0  0  0  0  1  0  0  0  0  0  0
    5.1570   60.0150   25.5020 C   0  0  1  0  0  3  0  0  0  0  0  0
    4.7530   62.9080   24.5620 H   0  0  0  0  0  0  0  0  0  0  0  0
    3.2330   62.2700   24.4430 H   0  0  0  0  0  0  0  0  0  0  0  0
    4.6990   60.2300   27.9820 C   0  0  0  0  0  0  0  0  0  0  0  0
    4.3530   59.3010   28.7040 O   0  0  0  0  0  0  0  0  0  0  0  0
    6.9460   61.2060   28.0910 N   0  0  0  0  0  0  0  0  0  0  0  0
    5.7370   61.1680   28.5410 C   0  0  0  0  0  3  0  0  0  0  0  0
    7.5970   61.8320   28.4810 H   0  0  0  0  0  0  0  0  0  0  0  0
    5.1900   58.4920   25.3340 C   0  0  0  0  0  2  0  0  0  0  0  0
    6.4210   57.8630   25.9700 C   0  0  0  0  0  1  0  0  0  0  0  0
    3.9690   60.2620   21.8680 C   0  0  0  0  0  2  0  0  0  0  0  0
    5.9640   58.9730   21.0290 C   0  0  0  0  0  0  0  0  0  0  0  0
    7.9210   60.0840   19.9830 C   0  0  0  0  0  2  0  0  0  0  0  0
    5.4540   60.3330   21.4930 C   0  0  1  0  0  3  0  0  0  0  0  0
    5.7580   61.4160   20.4520 C   0  0  0  0  0  2  0  0  0  0  0  0
    7.2550   61.4630   20.1080 C   0  0  2  0  0  3  0  0  0  0  0  0
    6.9090   58.9530   19.8490 C   0  0  0  0  0  2  0  0  0  0  0  0
    5.6240   57.9350   21.6000 O   0  0  0  0  0  0  0  0  0  0  0  0
    7.4990   62.2900   18.9680 O   0  0  0  0  0  0  0  0  0  0  0  0
    7.4000   61.4490   17.7870 O   0  0  0  0  0  0  0  0  0  0  0  0
    8.4630   61.7760   16.8520 N   0  0  0  0  0  0  0  0  0  0  0  0
    7.7700   61.9360   15.5750 C   0  0  0  0  0  1  0  0  0  0  0  0
    9.3410   60.6020   16.8630 C   0  0  0  0  0  2  0  0  0  0  0  0
    8.6290   59.3330   16.4090 C   0  0  0  0  0  1  0  0  0  0  0  0
  1  2  2  0  0  0  0
  3  5  1  0  0  0  0
  3  7  1  6  0  0  0
  4  1  1  1  0  0  0
  4  6  1  0  0  0  0
  4  8  1  0  0  0  0
  5 11  1  1  0  0  0
  6  3  1  0  0  0  0
  8 16  1  6  0  0  0
  8  5  1  0  0  0  0
  9  6  1  0  0  0  0
 10  6  1  0  0  0  0
 11 14  1  0  0  0  0
 11 12  2  0  0  0  0
 13 15  1  0  0  0  0
 13 14  2  0  0  0  0
 16 17  1  0  0  0  0
 18  1  1  0  0  0  0
 19 21  1  0  0  0  0
 19 25  2  0  0  0  0
 20 23  1  0  0  0  0
 21 18  1  6  0  0  0
 22 21  1  0  0  0  0
 23 26  1  6  0  0  0
 23 22  1  0  0  0  0
 24 20  1  0  0  0  0
 24 19  1  0  0  0  0
 27 26  1  0  0  0  0
 28 30  1  0  0  0  0
 28 27  1  0  0  0  0
 29 28  1  0  0  0  0
 31 30  1  0  0  0  0
M  END
>  <MODEL>
1

>  <REMARK>
 VINA RESULT:      -6.7      0.000      0.000
  Name = 
  14 active torsions:
  status: ('A' for Active; 'I' for Inactive)
    1  A    between atoms: C_1  and  C_5
    2  A    between atoms: C_1  and  C_27
    3  A    between atoms: C_2  and  C_7
    4  A    between atoms: C_2  and  C_28
    5  A    between atoms: C_4  and  C_24
    6  A    between atoms: N_6  and  C_8
    7  A    between atoms: N_6  and  C_12
    8  A    between atoms: N_6  and  O_18
    9  A    between atoms: C_8  and  C_14
   10  A    between atoms: C_11  and  C_27
   11  A    between atoms: O_13  and  O_18
   12  A    between atoms: O_13  and  C_21
   13  A    between atoms: C_15  and  C_16
   14  A    between atoms: C_15  and  C_25
                            x       y       z     vdW  Elec       q    Type
                         _______ _______ _______ _____ _____    ______ ____

>  <TORSDO>
F 10

$$$$
=
 OpenBabel12172412173D

 34 35  0  0  1  0  0  0  0  0999 V2000
    4.6860   56.6070   21.8200 C   0  0  0  0  0  0  0  0  0  0  0  0
    5.0760   56.6050   22.9830 O   0  0  0  0  0  0  0  0  0  0  0  0
    4.6080   57.7130   20.9970 N   0  0  0  0  0  0  0  0  0  0  0  0
    4.2340   57.5540   20.1010 H   0  0  0  0  0  0  0  0  0  0  0  0
    4.8110   61.1880   22.3850 C   0  0  0  0  0  0  0  0  0  0  0  0
    6.1220   59.5190   20.5860 C   0  0  0  0  0  0  0  0  0  0  0  0
    5.9340   61.6470   21.6840 C   0  0  0  0  0  3  0  0  0  0  0  0
    4.9950   59.0400   21.2740 C   0  0  0  0  0  0  0  0  0  0  0  0
    4.3410   59.8850   22.1730 C   0  0  0  0  0  3  0  0  0  0  0  0
    6.5940   60.8130   20.7830 C   0  0  0  0  0  3  0  0  0  0  0  0
    6.7530   58.6740   19.7070 O   0  0  0  0  0  0  0  0  0  0  0  0
    6.4280   57.8040   19.5800 H   0  0  0  0  0  0  0  0  0  0  0  0
    3.9450   62.2520   23.5360 S   0  0  0  0  0  0  0  0  0  0  0  0
    3.6620   61.1880   24.8030 N   0  0  0  0  0  0  0  0  0  0  0  0
    5.3240   59.7840   26.0840 C   0  0  0  0  0  1  0  0  0  0  0  0
    4.6580   61.1430   25.8900 C   0  0  0  0  0  2  0  0  0  0  0  0
    1.6200   59.7000   24.8120 C   0  0  0  0  0  1  0  0  0  0  0  0
    2.2730   61.0020   25.2660 C   0  0  0  0  0  2  0  0  0  0  0  0
    3.3520   54.3740   22.0320 C   0  0  1  0  0  3  0  0  0  0  0  0
    2.3830   54.3480   19.7710 C   0  0  1  0  0  3  0  0  0  0  0  0
    3.2970   55.5840   19.9090 C   0  0  0  0  0  2  0  0  0  0  0  0
    2.7850   53.4170   20.9470 C   0  0  1  0  0  0  0  0  0  0  0  0
    4.1740   55.3400   21.1460 C   0  0  1  0  0  3  0  0  0  0  0  0
    0.9740   54.7650   19.7520 N   0  0  0  0  0  4  0  0  0  0  0  0
    0.6550   54.9290   20.7070 H   0  0  0  0  0  0  0  0  0  0  0  0
    0.4080   54.0320   19.3250 H   0  0  0  0  0  0  0  0  0  0  0  0
    0.8810   55.6250   19.2110 H   0  0  0  0  0  0  0  0  0  0  0  0
    2.2540   54.9350   24.3030 C   0  0  0  0  0  2  0  0  0  0  0  0
    2.2940   54.9370   22.9640 C   0  0  0  0  0  3  0  0  0  0  0  0
    3.8910   52.5860   20.5030 O   0  0  0  0  0  0  0  0  0  0  0  0
    4.4300   53.0800   19.8660 H   0  0  0  0  0  0  0  0  0  0  0  0
    1.6850   52.4410   21.3880 C   0  0  0  0  0  2  0  0  0  0  0  0
    1.1020   51.8480   20.2170 O   0  0  0  0  0  0  0  0  0  0  0  0
    0.1570   52.0610   20.1830 H   0  0  0  0  0  0  0  0  0  0  0  0
  1  2  2  0  0  0  0
  3  8  1  0  0  0  0
  3  1  1  0  0  0  0
  4  3  1  0  0  0  0
  5 13  1  0  0  0  0
  6 10  2  0  0  0  0
  6  8  1  0  0  0  0
  7  5  2  0  0  0  0
  8  9  2  0  0  0  0
  9  5  1  0  0  0  0
 10  7  1  0  0  0  0
 11  6  1  0  0  0  0
 12 11  1  0  0  0  0
 13 14  1  0  0  0  0
 14 18  1  0  0  0  0
 14 16  1  0  0  0  0
 16 15  1  0  0  0  0
 17 18  1  0  0  0  0
 19 29  1  6  0  0  0
 20 24  1  1  0  0  0
 20 21  1  0  0  0  0
 20 22  1  0  0  0  0
 21 23  1  0  0  0  0
 22 32  1  1  0  0  0
 22 19  1  0  0  0  0
 23  1  1  1  0  0  0
 23 19  1  0  0  0  0
 24 25  1  0  0  0  0
 26 24  1  0  0  0  0
 27 24  1  0  0  0  0
 29 28  2  0  0  0  0
 30 22  1  0  0  0  0
 31 30  1  0  0  0  0
 33 32  1  0  0  0  0
 34 33  1  0  0  0  0
M  END
>  <MODEL>
1

>  <REMARK>
 VINA RESULT:      -6.1      0.000      0.000
  Name = 
  14 active torsions:
  status: ('A' for Active; 'I' for Inactive)
    1  A    between atoms: C_1  and  C_26
    2  A    between atoms: S_2  and  C_4
    3  A    between atoms: S_2  and  N_13
    4  A    between atoms: C_3  and  O_12
    5  A    between atoms: C_3  and  C_25
    6  A    between atoms: C_5  and  O_17
    7  A    between atoms: C_6  and  C_23
    8  A    between atoms: C_7  and  N_10
    9  A    between atoms: C_11  and  N_19
   10  A    between atoms: N_13  and  C_20
   11  A    between atoms: N_13  and  C_27
   12  A    between atoms: C_16  and  C_20
   13  A    between atoms: C_22  and  C_27
   14  A    between atoms: O_24  and  C_25
                            x       y       z     vdW  Elec       q    Type
                         _______ _______ _______ _____ _____    ______ ____

>  <TORSDO>
F 12

$$$$

     RDKit          2D

  1  0  0  0  0  0  0  0  0  0999 V2000
    0.0000    0.0000    0.0000 C   0  0  0  0  0  0  0  0  0  0  0  0
M  END
$$$$
=
 OpenBabel12172412183D

 40 41  0  0  1  0  0  0  0  0999 V2000
    2.1250   54.6580   20.7640 C   0  0  1  0  0  3  0  0  0  0  0  0
    3.1320   55.7190   18.9660 C   0  0  1  0  0  3  0  0  0  0  0  0
    3.3100   55.4460   21.3420 C   0  0  0  0  0  2  0  0  0  0  0  0
    2.4690   54.4740   19.3030 N   0  0  0  0  0  4  0  0  0  0  0  0
    4.0740   56.0060   20.1410 C   0  0  2  0  0  3  0  0  0  0  0  0
    1.6270   54.3440   18.7420 H   0  0  0  0  0  0  0  0  0  0  0  0
    3.0430   53.6510   19.1250 H   0  0  0  0  0  0  0  0  0  0  0  0
    4.4230   57.4100   20.2670 N   0  0  0  0  0  0  0  0  0  0  0  0
    5.5670   57.1890   22.2390 O   0  0  0  0  0  0  0  0  0  0  0  0
    5.2690   57.8680   21.2650 C   0  0  0  0  0  0  0  0  0  0  0  0
    4.0460   58.0560   19.6260 H   0  0  0  0  0  0  0  0  0  0  0  0
    6.6390   59.3360   19.9350 N   0  0  0  0  0  0  0  0  0  0  0  0
    6.0420   61.5920   21.4400 C   0  0  0  0  0  3  0  0  0  0  0  0
    7.1850   60.5320   19.6180 C   0  0  0  0  0  0  0  0  0  0  0  0
    5.4690   60.3670   21.8150 C   0  0  0  0  0  0  0  0  0  0  0  0
    5.7930   59.2680   21.0150 C   0  0  0  0  0  0  0  0  0  0  0  0
    8.1030   60.5380   18.4290 C   0  0  0  0  0  1  0  0  0  0  0  0
    6.9140   61.6930   20.3440 C   0  0  0  0  0  0  0  0  0  0  0  0
    7.5160   63.0190   19.9750 C   0  0  0  0  0  2  0  0  0  0  0  0
    6.6490   64.0640   20.1020 F   0  0  0  0  0  0  0  0  0  0  0  0
    4.9080   60.3190   24.2360 C   0  0  0  0  0  2  0  0  0  0  0  0
    4.5340   60.3280   22.9500 C   0  0  0  0  0  3  0  0  0  0  0  0
    3.8310   55.5420   17.7610 O   0  0  0  0  0  0  0  0  0  0  0  0
    3.9320   56.3980   17.3160 H   0  0  0  0  0  0  0  0  0  0  0  0
    1.7750   53.2540   21.4200 C   0  0  2  0  0  0  0  0  0  0  0  0
    0.3870   53.2270   21.8230 N   0  0  0  0  0  4  0  0  0  0  0  0
   -0.0410   52.3550   21.5090 H   0  0  0  0  0  0  0  0  0  0  0  0
   -0.1050   54.0160   21.4040 H   0  0  0  0  0  0  0  0  0  0  0  0
    0.3260   53.2880   22.8390 H   0  0  0  0  0  0  0  0  0  0  0  0
    2.4570   53.2390   22.6670 O   0  0  0  0  0  0  0  0  0  0  0  0
    3.3970   53.0510   22.5180 H   0  0  0  0  0  0  0  0  0  0  0  0
    1.9940   52.0120   20.7060 N   0  0  0  0  0  4  0  0  0  0  0  0
    2.6030   52.3200   19.9480 H   0  0  0  0  0  0  0  0  0  0  0  0
    4.1300   50.6790   20.7210 C   0  0  0  0  0  1  0  0  0  0  0  0
    2.7940   50.9910   21.3970 C   0  0  0  0  0  2  0  0  0  0  0  0
    0.8040   51.4640   20.0720 C   0  0  0  0  0  2  0  0  0  0  0  0
    1.0630   51.0860   18.6960 N   0  0  0  0  0  4  0  0  0  0  0  0
    1.9360   50.5620   18.6450 H   0  0  0  0  0  0  0  0  0  0  0  0
    1.1380   51.9260   18.1210 H   0  0  0  0  0  0  0  0  0  0  0  0
    0.2980   50.5060   18.3520 H   0  0  0  0  0  0  0  0  0  0  0  0
  1  3  1  0  0  0  0
  1 25  1  1  0  0  0
  2 23  1  6  0  0  0
  2  4  1  0  0  0  0
  2  5  1  0  0  0  0
  4  1  1  0  0  0  0
  5  8  1  1  0  0  0
  5  3  1  0  0  0  0
  6  4  1  0  0  0  0
  7  4  1  0  0  0  0
  8 10  1  0  0  0  0
 10  9  2  0  0  0  0
 11  8  1  0  0  0  0
 12 16  1  0  0  0  0
 13 15  1  0  0  0  0
 14 12  2  0  0  0  0
 14 18  1  0  0  0  0
 15 22  1  0  0  0  0
 16 10  1  0  0  0  0
 16 15  2  0  0  0  0
 17 14  1  0  0  0  0
 18 13  2  0  0  0  0
 19 20  1  0  0  0  0
 19 18  1  0  0  0  0
 22 21  2  0  0  0  0
 24 23  1  0  0  0  0
 25 26  1  0  0  0  0
 25 30  1  1  0  0  0
 26 29  1  0  0  0  0
 27 26  1  0  0  0  0
 28 26  1  0  0  0  0
 31 30  1  0  0  0  0
 32 35  1  0  0  0  0
 32 25  1  0  0  0  0
 33 32  1  0  0  0  0
 34 35  1  0  0  0  0
 36 32  1  0  0  0  0
 37 36  1  0  0  0  0
 38 37  1  0  0  0  0
 39 37  1  0  0  0  0
 40 37  1  0  0  0  0
M  END
>  <MODEL>
1

>  <REMARK>
 VINA RESULT:      -6.8      0.000      0.000
  Name = 
  14 active torsions:
  status: ('A' for Active; 'I' for Inactive)
    1  A    between atoms: C_1  and  C_4
    2  A    between atoms: C_1  and  O_11
    3  A    between atoms: C_1  and  N_13
    4  A    between atoms: C_1  and  N_24
    5  A    between atoms: N_3  and  C_26
    6  A    between atoms: C_7  and  O_19
    7  A    between atoms: C_8  and  C_28
    8  A    between atoms: C_9  and  C_23
    9  A    between atoms: N_10  and  C_17
   10  A    between atoms: C_12  and  C_27
   11  A    between atoms: N_13  and  C_17
   12  A    between atoms: N_13  and  C_25
   13  A    between atoms: C_20  and  C_25
   14  A    between atoms: C_21  and  C_22
                            x       y       z     vdW  Elec       q    Type
                         _______ _______ _______ _____ _____    ______ ____

>  <TORSDO>
F 12

$$$$
=
 OpenBabel12172412183D

 31 32  0  0  1  0  0  0  0  0999 V2000
    2.2160   58.5250   24.0540 O   0  0  0  0  0  0  0  0  0  0  0  0
    3.4150   58.5240   24.3290 C   0  0  0  0  0  0  0  0  0  0  0  0
    4.4150   57.9870   23.5410 N   0  0  0  0  0  0  0  0  0  0  0  0
    5.3350   58.1200   23.8650 H   0  0  0  0  0  0  0  0  0  0  0  0
    3.9580   59.2480   25.5810 C   0  0  2  0  0  3  0  0  0  0  0  0
    4.1670   60.7700   25.5120 C   0  0  1  0  0  3  0  0  0  0  0  0
    5.8810   59.7410   26.8870 C   0  0  1  0  0  3  0  0  0  0  0  0
    4.9410   60.9550   26.8330 C   0  0  1  0  0  3  0  0  0  0  0  0
    6.0110   59.1610   28.2930 C   0  0  0  0  0  1  0  0  0  0  0  0
    5.3080   58.7700   25.9520 N   0  0  0  0  0  4  0  0  0  0  0  0
    5.8930   58.7010   25.1190 H   0  0  0  0  0  0  0  0  0  0  0  0
    5.2550   57.8460   26.3820 H   0  0  0  0  0  0  0  0  0  0  0  0
    5.6740   62.2630   27.0060 C   0  0  0  0  0  3  0  0  0  0  0  0
    5.1290   63.3610   26.9410 O   0  0  0  0  0  0  0  0  0  0  0  0
    4.1550   62.1900   23.3980 C   0  0  0  0  0  1  0  0  0  0  0  0
    4.9570   61.2180   24.2560 C   0  0  0  0  0  2  0  0  0  0  0  0
    4.2870   57.2710   22.3330 C   0  0  0  0  0  0  0  0  0  0  0  0
    4.0690   57.4450   19.9040 C   0  0  0  0  0  3  0  0  0  0  0  0
    4.2640   55.8810   22.2340 C   0  0  0  0  0  3  0  0  0  0  0  0
    4.1260   55.2840   20.9770 C   0  0  0  0  0  0  0  0  0  0  0  0
    4.1870   58.0400   21.1600 C   0  0  0  0  0  0  0  0  0  0  0  0
    4.0460   56.0550   19.8150 C   0  0  0  0  0  3  0  0  0  0  0  0
    4.2140   59.4080   21.2820 O   0  0  0  0  0  0  0  0  0  0  0  0
    4.0250   59.8090   22.1070 H   0  0  0  0  0  0  0  0  0  0  0  0
    4.1440   53.9160   20.8710 O   0  0  0  0  0  0  0  0  0  0  0  0
    2.6790   53.1900   21.2030 S   0  0  0  0  0  0  0  0  0  0  0  0
    2.3000   52.6920   19.6470 N   0  0  0  0  0  0  0  0  0  0  0  0
    1.3750   50.9560   18.0670 C   0  0  0  0  0  1  0  0  0  0  0  0
    1.9660   51.2720   19.4370 C   0  0  0  0  0  2  0  0  0  0  0  0
    1.5360   53.6150   18.7900 C   0  0  0  0  0  2  0  0  0  0  0  0
    0.4720   54.4290   19.5200 C   0  0  0  0  0  1  0  0  0  0  0  0
  1  2  2  0  0  0  0
  3  4  1  0  0  0  0
  3  2  1  0  0  0  0
  5  2  1  6  0  0  0
  5 10  1  0  0  0  0
  6 16  1  6  0  0  0
  6  5  1  0  0  0  0
  6  8  1  0  0  0  0
  7  9  1  1  0  0  0
  8  7  1  0  0  0  0
  8 13  1  6  0  0  0
 10 12  1  0  0  0  0
 10  7  1  0  0  0  0
 11 10  1  0  0  0  0
 14 13  2  0  0  0  0
 15 16  1  0  0  0  0
 17  3  1  0  0  0  0
 18 21  1  0  0  0  0
 19 17  1  0  0  0  0
 20 19  2  0  0  0  0
 21 23  1  0  0  0  0
 21 17  2  0  0  0  0
 22 18  2  0  0  0  0
 22 20  1  0  0  0  0
 23 24  1  0  0  0  0
 25 20  1  0  0  0  0
 25 26  1  0  0  0  0
 27 26  1  0  0  0  0
 28 29  1  0  0  0  0
 29 27  1  0  0  0  0
 30 31  1  0  0  0  0
 30 27  1  0  0  0  0
M  END
>  <MODEL>
1

>  <REMARK>
 VINA RESULT:      -6.2      0.000      0.000
  Name = 
  14 active torsions:
  status: ('A' for Active; 'I' for Inactive)
    1  A    between atoms: N_1  and  S_9
    2  A    between atoms: N_1  and  C_16
    3  A    between atoms: N_1  and  C_20
    4  A    between atoms: C_2  and  N_25
    5  A    between atoms: C_3  and  C_17
    6  A    between atoms: C_4  and  C_15
    7  A    between atoms: C_8  and  C_27
    8  A    between atoms: S_9  and  O_22
    9  A    between atoms: C_10  and  C_18
   10  A    between atoms: C_11  and  O_22
   11  A    between atoms: C_12  and  O_23
   12  A    between atoms: C_14  and  C_20
   13  A    between atoms: C_16  and  C_19
   14  A    between atoms: C_26  and  C_27
                            x       y       z     vdW  Elec       q    Type
                         _______ _______ _______ _____ _____    ______ ____

>  <TORSDO>
F 10

$$$$
=
 OpenBabel12172412193D

 41 42  0  0  1  0  0  0  0  0999 V2000
    3.5860   55.8510   22.8890 C   0  0  0  0  0  3  0  0  0  0  0  0
    3.5010   56.2120   24.2330 C   0  0  0  0  0  0  0  0  0  0  0  0
    2.6370   55.5000   25.0760 C   0  0  0  0  0  0  0  0  0  0  0  0
    2.8240   54.7790   22.3730 C   0  0  0  0  0  0  0  0  0  0  0  0
    1.8740   54.4400   24.6000 C   0  0  0  0  0  3  0  0  0  0  0  0
    1.9730   54.0830   23.2540 C   0  0  0  0  0  3  0  0  0  0  0  0
    5.5770   57.2920   25.1440 C   0  0  0  0  0  0  0  0  0  0  0  0
    6.3940   56.3970   24.9390 O   0  0  0  0  0  0  0  0  0  0  0  0
    4.2350   57.2580   24.8300 N   0  0  0  0  0  0  0  0  0  0  0  0
    3.7220   58.0680   25.0510 H   0  0  0  0  0  0  0  0  0  0  0  0
    6.2480   58.3990   27.2710 N   0  0  0  0  0  4  0  0  0  0  0  0
    4.8950   59.6970   25.7460 C   0  0  1  0  0  3  0  0  0  0  0  0
    5.0450   58.8710   27.9650 C   0  0  1  0  0  3  0  0  0  0  0  0
    6.0040   58.6240   25.8150 C   0  0  2  0  0  3  0  0  0  0  0  0
    5.2330   58.9990   29.4680 C   0  0  0  0  0  1  0  0  0  0  0  0
    4.7140   60.1510   27.2070 C   0  0  1  0  0  3  0  0  0  0  0  0
    6.3960   57.4060   27.4550 H   0  0  0  0  0  0  0  0  0  0  0  0
    7.0810   58.8940   27.5900 H   0  0  0  0  0  0  0  0  0  0  0  0
    5.5340   61.3690   27.6370 C   0  0  0  0  0  0  0  0  0  0  0  0
    6.7570   61.2630   27.8020 O   0  0  0  0  0  0  0  0  0  0  0  0
    4.8630   62.7260   27.8510 C   0  0  0  0  0  2  0  0  0  0  0  0
    5.5830   63.7450   27.1610 O   0  0  0  0  0  0  0  0  0  0  0  0
    4.9640   64.4300   26.8600 H   0  0  0  0  0  0  0  0  0  0  0  0
    5.1310   60.7930   24.7000 C   0  0  0  0  0  2  0  0  0  0  0  0
    5.0330   60.2740   23.2720 C   0  0  0  0  0  1  0  0  0  0  0  0
    2.5670   55.8730   26.3970 O   0  0  0  0  0  0  0  0  0  0  0  0
    2.6540   56.7750   26.6340 H   0  0  0  0  0  0  0  0  0  0  0  0
    2.9200   54.3750   20.9000 C   0  0  0  0  0  0  0  0  0  0  0  0
    2.4780   55.3540   19.9220 N   0  0  0  0  0  4  0  0  0  0  0  0
    2.1310   56.1260   20.4910 H   0  0  0  0  0  0  0  0  0  0  0  0
    4.0250   57.3130   19.7590 C   0  0  0  0  0  1  0  0  0  0  0  0
    3.5590   55.9870   19.1600 C   0  0  0  0  0  2  0  0  0  0  0  0
    1.2830   55.0040   19.1840 C   0  0  0  0  0  2  0  0  0  0  0  0
    1.5740   54.5230   17.8480 N   0  0  0  0  0  4  0  0  0  0  0  0
    2.5670   54.6440   17.6520 H   0  0  0  0  0  0  0  0  0  0  0  0
    1.0260   55.0530   17.1700 H   0  0  0  0  0  0  0  0  0  0  0  0
    1.3310   53.5340   17.7840 H   0  0  0  0  0  0  0  0  0  0  0  0
    2.1640   53.2030   20.6900 O   0  0  0  0  0  0  0  0  0  0  0  0
    1.9330   52.9440   19.8190 H   0  0  0  0  0  0  0  0  0  0  0  0
    4.2300   53.9200   20.6130 O   0  0  0  0  0  0  0  0  0  0  0  0
    4.4210   53.5380   19.7800 H   0  0  0  0  0  0  0  0  0  0  0  0
  1  2  1  0  0  0  0
  2  9  1  0  0  0  0
  2  3  2  0  0  0  0
  3 26  1  0  0  0  0
  4  1  2  0  0  0  0
  4  6  1  0  0  0  0
  5  3  1  0  0  0  0
  6  5  2  0  0  0  0
  8  7  2  0  0  0  0
  9 10  1  0  0  0  0
  9  7  1  0  0  0  0
 11 17  1  0  0  0  0
 11 18  1  0  0  0  0
 11 13  1  0  0  0  0
 12 24  1  6  0  0  0
 12 14  1  0  0  0  0
 12 16  1  0  0  0  0
 13 15  1  1  0  0  0
 14  7  1  1  0  0  0
 14 11  1  0  0  0  0
 16 19  1  1  0  0  0
 16 13  1  0  0  0  0
 19 20  2  0  0  0  0
 19 21  1  0  0  0  0
 22 21  1  0  0  0  0
 23 22  1  0  0  0  0
 25 24  1  0  0  0  0
 26 27  1  0  0  0  0
 28  4  1  0  0  0  0
 29 30  1  0  0  0  0
 29 28  1  0  0  0  0
 32 31  1  0  0  0  0
 32 29  1  0  0  0  0
 33 29  1  0  0  0  0
 34 33  1  0  0  0  0
 35 34  1  0  0  0  0
 36 34  1  0  0  0  0
 37 34  1  0  0  0  0
 38 28  1  0  0  0  0
 39 38  1  0  0  0  0
 40 28  1  0  0  0  0
 41 40  1  0  0  0  0
M  END
>  <MODEL>
1

>  <REMARK>
 VINA RESULT:      -6.2      0.000      0.000
  Name = 
  17 active torsions:
  status: ('A' for Active; 'I' for Inactive)
    1  A    between atoms: C_1  and  C_14
    2  A    between atoms: C_2  and  N_10
    3  A    between atoms: C_2  and  C_13
    4  A    between atoms: C_2  and  O_26
    5  A    between atoms: C_2  and  O_28
    6  A    between atoms: C_5  and  C_16
    7  A    between atoms: O_6  and  C_11
    8  A    between atoms: C_7  and  N_21
    9  A    between atoms: C_8  and  C_17
   10  A    between atoms: C_9  and  C_11
   11  A    between atoms: C_9  and  C_19
   12  A    between atoms: N_10  and  C_15
   13  A    between atoms: N_10  and  C_25
   14  A    between atoms: C_12  and  O_24
   15  A    between atoms: C_15  and  N_27
   16  A    between atoms: C_16  and  C_30
   17  A    between atoms: C_22  and  C_25
                            x       y       z     vdW  Elec       q    Type
                         _______ _______ _______ _____ _____    ______ ____

>  <TORSDO>
F 14

$$$$

     RDKit          2D

  1  0  0  0  0  0  0  0  0  0999 V2000
    0.0000    0.0000    0.0000 C   0  0  0  0  0  0  0  0  0  0  0  0
M  END
$$$$

     RDKit          2D

  1  0  0  0  0  0  0  0  0  0999 V2000
    0.0000    0.0000    0.0000 C   0  0  0  0  0  0  0  0  0  0  0  0
M  END
$$$$

     RDKit          2D

  1  0  0  0  0  0  0  0  0  0999 V2000
    0.0000    0.0000    0.0000 C   0  0  0  0  0  0  0  0  0  0  0  0
M  END
$$$$

     RDKit          2D

  1  0  0  0  0  0  0  0  0  0999 V2000
    0.0000    0.0000    0.0000 C   0  0  0  0  0  0  0  0  0  0  0  0
M  END
$$$$
=
 OpenBabel12172412203D

 33 34  0  0  1  0  0  0  0  0999 V2000
    5.0810   59.2590   25.3730 N   0  0  0  0  0  0  0  0  0  0  0  0
    6.1750   59.7780   27.4650 C   0  0  2  0  0  3  0  0  0  0  0  0
    3.9490   60.9500   26.8630 C   0  0  0  0  0  2  0  0  0  0  0  0
    6.3060   60.9970   28.3720 C   0  0  0  0  0  2  0  0  0  0  0  0
    4.5220   62.3740   27.1550 C   0  0  2  0  0  0  0  0  0  0  0  0
    5.0360   59.9730   26.4590 C   0  0  0  0  0  0  0  0  0  0  0  0
    6.0280   62.2520   27.5580 C   0  0  0  0  0  2  0  0  0  0  0  0
    3.6510   62.9860   28.1950 N   0  0  0  0  0  4  0  0  0  0  0  0
    2.8010   62.0930   28.9700 C   0  0  0  0  0  1  0  0  0  0  0  0
    3.0060   63.4670   27.5690 H   0  0  0  0  0  0  0  0  0  0  0  0
    4.2510   64.0430   29.0230 C   0  0  0  0  0  2  0  0  0  0  0  0
    4.0860   65.4810   28.5420 C   0  0  0  0  0  1  0  0  0  0  0  0
    4.0280   59.3610   24.4980 C   0  0  0  0  0  0  0  0  0  0  0  0
    2.9590   58.7830   24.6890 O   0  0  0  0  0  0  0  0  0  0  0  0
    6.0670   60.6270   21.5740 C   0  0  2  0  0  3  0  0  0  0  0  0
    5.1550   59.4910   22.1270 C   0  0  1  0  0  3  0  0  0  0  0  0
    4.2930   60.1700   23.2060 C   0  0  2  0  0  3  0  0  0  0  0  0
    4.4890   62.7240   21.5240 C   0  0  0  0  0  1  0  0  0  0  0  0
    5.0640   61.3970   23.5340 N   0  0  0  0  0  4  0  0  0  0  0  0
    5.5580   61.9110   22.2510 C   0  0  1  0  0  3  0  0  0  0  0  0
    5.8450   61.1720   24.1510 H   0  0  0  0  0  0  0  0  0  0  0  0
    4.4890   62.0850   24.0180 H   0  0  0  0  0  0  0  0  0  0  0  0
    7.5080   59.7180   19.6860 C   0  0  0  0  0  1  0  0  0  0  0  0
    6.3790   60.6710   20.0710 C   0  0  2  0  0  3  0  0  0  0  0  0
    6.7230   61.9790   19.6410 O   0  0  0  0  0  0  0  0  0  0  0  0
    6.8230   62.5570   20.4130 H   0  0  0  0  0  0  0  0  0  0  0  0
    4.6860   57.0960   21.1830 C   0  0  0  0  0  1  0  0  0  0  0  0
    4.3890   58.5890   21.1410 C   0  0  0  0  0  2  0  0  0  0  0  0
    5.9390   58.6230   28.2500 O   0  0  0  0  0  0  0  0  0  0  0  0
    6.6090   58.5660   28.9500 H   0  0  0  0  0  0  0  0  0  0  0  0
    4.4600   63.0710   25.8850 O   0  0  0  0  0  0  0  0  0  0  0  0
    3.1480   62.8400   25.2880 O   0  0  0  0  0  0  0  0  0  0  0  0
    3.1080   61.9360   24.9370 H   0  0  0  0  0  0  0  0  0  0  0  0
  1  6  2  0  0  0  0
  2 29  1  1  0  0  0
  2  4  1  0  0  0  0
  3  5  1  0  0  0  0
  5 31  1  6  0  0  0
  5  7  1  0  0  0  0
  5  8  1  0  0  0  0
  6  3  1  0  0  0  0
  6  2  1  0  0  0  0
  7  4  1  0  0  0  0
  8  9  1  0  0  0  0
  8 11  1  0  0  0  0
 10  8  1  0  0  0  0
 12 11  1  0  0  0  0
 13 14  2  0  0  0  0
 13  1  1  0  0  0  0
 15 24  1  6  0  0  0
 15 16  1  0  0  0  0
 15 20  1  0  0  0  0
 16 28  1  6  0  0  0
 16 17  1  0  0  0  0
 17 19  1  0  0  0  0
 17 13  1  1  0  0  0
 19 22  1  0  0  0  0
 19 21  1  0  0  0  0
 20 18  1  6  0  0  0
 20 19  1  0  0  0  0
 24 23  1  1  0  0  0
 25 24  1  0  0  0  0
 25 26  1  0  0  0  0
 28 27  1  0  0  0  0
 29 30  1  0  0  0  0
 32 31  1  0  0  0  0
 33 32  1  0  0  0  0
M  END
>  <MODEL>
1

>  <REMARK>
 VINA RESULT:      -6.0      0.000      0.000
  Name = 
  15 active torsions:
  status: ('A' for Active; 'I' for Inactive)
    1  A    between atoms: C_1  and  N_4
    2  A    between atoms: C_1  and  C_17
    3  A    between atoms: N_2  and  C_8
    4  A    between atoms: N_2  and  C_13
    5  A    between atoms: N_2  and  C_16
    6  A    between atoms: C_3  and  C_26
    7  A    between atoms: C_5  and  O_12
    8  A    between atoms: O_6  and  C_26
    9  A    between atoms: C_10  and  C_26
   10  A    between atoms: C_11  and  C_24
   11  A    between atoms: C_13  and  C_22
   12  A    between atoms: O_14  and  O_25
   13  A    between atoms: C_15  and  C_24
   14  A    between atoms: C_16  and  O_25
   15  A    between atoms: C_20  and  C_27
                            x       y       z     vdW  Elec       q    Type
                         _______ _______ _______ _____ _____    ______ ____

>  <TORSDO>
F 10

$$$$

     RDKit          2D

  1  0  0  0  0  0  0  0  0  0999 V2000
    0.0000    0.0000    0.0000 C   0  0  0  0  0  0  0  0  0  0  0  0
M  END
$$$$
=
 OpenBabel12172412213D

 37 38  0  0  1  0  0  0  0  0999 V2000
    5.1550   56.8240   22.9510 N   0  0  0  0  0  0  0  0  0  0  0  0
    6.1260   56.7040   23.0570 H   0  0  0  0  0  0  0  0  0  0  0  0
    4.4750   56.3870   21.7910 C   0  0  0  0  0  0  0  0  0  0  0  0
    3.5990   55.3020   21.8470 C   0  0  0  0  0  3  0  0  0  0  0  0
    3.9350   56.6700   19.4260 C   0  0  0  0  0  3  0  0  0  0  0  0
    4.6350   57.0590   20.5670 C   0  0  0  0  0  0  0  0  0  0  0  0
    3.0570   55.5890   19.4970 C   0  0  0  0  0  3  0  0  0  0  0  0
    2.9060   54.9090   20.7040 C   0  0  0  0  0  0  0  0  0  0  0  0
    5.5110   58.1110   20.5210 O   0  0  0  0  0  0  0  0  0  0  0  0
    6.2070   58.1140   19.8950 H   0  0  0  0  0  0  0  0  0  0  0  0
    1.8210   53.5630   20.8060 S   0  0  0  0  0  0  0  0  0  0  0  0
    1.7770   53.0210   22.3150 O   0  0  0  0  0  0  0  0  0  0  0  0
    1.1760   53.5720   22.8400 H   0  0  0  0  0  0  0  0  0  0  0  0
    0.3310   54.0970   20.5600 O   0  0  0  0  0  0  0  0  0  0  0  0
   -0.0200   53.7120   19.7410 H   0  0  0  0  0  0  0  0  0  0  0  0
    2.1490   52.2830   19.7690 N   0  0  0  0  0  0  0  0  0  0  0  0
    1.3400   52.1100   18.5540 C   0  0  0  0  0  2  0  0  0  0  0  0
    1.4210   50.7120   17.9510 C   0  0  0  0  0  1  0  0  0  0  0  0
    4.0800   50.9890   20.6460 C   0  0  0  0  0  1  0  0  0  0  0  0
    2.5980   50.9860   20.2910 C   0  0  0  0  0  2  0  0  0  0  0  0
    4.3390   57.4660   23.9870 C   0  0  2  0  0  3  0  0  0  0  0  0
    5.1690   58.5930   24.7070 C   0  0  1  0  0  3  0  0  0  0  0  0
    3.5960   59.8550   27.7960 C   0  0  0  0  0  1  0  0  0  0  0  0
    3.6830   59.3670   26.3550 C   0  0  1  0  0  3  0  0  0  0  0  0
    4.8900   60.0660   24.3460 C   0  0  2  0  0  3  0  0  0  0  0  0
    3.6580   60.4460   25.2200 C   0  0  1  0  0  0  0  0  0  0  0  0
    4.9450   58.6320   26.1800 N   0  0  0  0  0  4  0  0  0  0  0  0
    5.7100   59.1200   26.6450 H   0  0  0  0  0  0  0  0  0  0  0  0
    4.9020   57.6970   26.5850 H   0  0  0  0  0  0  0  0  0  0  0  0
    4.9750   60.4190   22.8510 C   0  0  0  0  0  2  0  0  0  0  0  0
    5.6590   61.7060   22.4260 C   0  0  0  0  0  1  0  0  0  0  0  0
    2.4300   60.2460   24.5040 O   0  0  0  0  0  0  0  0  0  0  0  0
    2.1240   59.3340   24.6360 H   0  0  0  0  0  0  0  0  0  0  0  0
    3.0620   63.0770   24.5850 Cl  0  0  0  0  0  0  0  0  0  0  0  0
    3.7190   61.8920   25.7520 C   0  0  0  0  0  2  0  0  0  0  0  0
    3.9990   56.5090   24.9950 O   0  0  0  0  0  0  0  0  0  0  0  0
    3.7950   56.9710   25.8240 H   0  0  0  0  0  0  0  0  0  0  0  0
  1  2  1  0  0  0  0
  1 21  1  0  0  0  0
  3  4  1  0  0  0  0
  3  1  1  0  0  0  0
  5  7  2  0  0  0  0
  5  6  1  0  0  0  0
  6  3  2  0  0  0  0
  7  8  1  0  0  0  0
  8 11  1  0  0  0  0
  8  4  2  0  0  0  0
  9  6  1  0  0  0  0
 10  9  1  0  0  0  0
 11 12  1  0  0  0  0
 12 13  1  0  0  0  0
 14 11  1  0  0  0  0
 15 14  1  0  0  0  0
 16 20  1  0  0  0  0
 16 11  1  0  0  0  0
 17 16  1  0  0  0  0
 18 17  1  0  0  0  0
 20 19  1  0  0  0  0
 21 36  1  1  0  0  0
 22 21  1  6  0  0  0
 22 27  1  0  0  0  0
 24 23  1  1  0  0  0
 25 30  1  6  0  0  0
 25 22  1  0  0  0  0
 25 26  1  0  0  0  0
 26 35  1  1  0  0  0
 26 24  1  0  0  0  0
 27 24  1  0  0  0  0
 27 29  1  0  0  0  0
 27 28  1  0  0  0  0
 31 30  1  0  0  0  0
 32 33  1  0  0  0  0
 32 26  1  0  0  0  0
 34 35  1  0  0  0  0
 36 37  1  0  0  0  0
M  END
>  <MODEL>
1

>  <REMARK>
 VINA RESULT:      -5.9      0.000      0.000
  Name = 
  18 active torsions:
  status: ('A' for Active; 'I' for Inactive)
    1  A    between atoms: O_1  and  C_29
    2  A    between atoms: C_2  and  C_29
    3  A    between atoms: C_3  and  N_14
    4  A    between atoms: C_3  and  C_21
    5  A    between atoms: C_4  and  N_6
    6  A    between atoms: N_6  and  C_29
    7  A    between atoms: C_7  and  C_15
    8  A    between atoms: C_7  and  C_18
    9  A    between atoms: O_8  and  C_20
   10  A    between atoms: C_9  and  C_27
   11  A    between atoms: S_11  and  N_14
   12  A    between atoms: S_11  and  O_17
   13  A    between atoms: S_11  and  O_23
   14  A    between atoms: S_11  and  C_24
   15  A    between atoms: C_12  and  C_13
   16  A    between atoms: N_14  and  C_27
   17  A    between atoms: C_16  and  O_28
   18  A    between atoms: C_20  and  C_26
                            x       y       z     vdW  Elec       q    Type
                         _______ _______ _______ _____ _____    ______ ____

>  <TORSDO>
F 14

$$$$

     RDKit          2D

  1  0  0  0  0  0  0  0  0  0999 V2000
    0.0000    0.0000    0.0000 C   0  0  0  0  0  0  0  0  0  0  0  0
M  END
$$$$
=
 OpenBabel12172412223D

 35 36  0  0  1  0  0  0  0  0999 V2000
    5.1240   59.2570   22.1350 C   0  0  2  0  0  3  0  0  0  0  0  0
    4.7310   62.5310   23.1150 N   0  0  0  0  0  0  0  0  0  0  0  0
    4.0070   60.3330   22.1170 C   0  0  0  0  0  2  0  0  0  0  0  0
    6.6390   60.8320   20.9390 N   0  0  0  0  0  4  0  0  0  0  0  0
    5.6380   61.8880   20.9230 C   0  0  1  0  0  3  0  0  0  0  0  0
    4.7280   61.6650   22.1440 C   0  0  0  0  0  0  0  0  0  0  0  0
    6.0250   59.4950   20.8970 C   0  0  0  0  0  2  0  0  0  0  0  0
    7.1910   60.9140   21.7930 H   0  0  0  0  0  0  0  0  0  0  0  0
    7.2260   60.9380   20.1120 H   0  0  0  0  0  0  0  0  0  0  0  0
    3.9210   62.2620   24.1920 C   0  0  0  0  0  0  0  0  0  0  0  0
    2.7620   62.6670   24.2640 O   0  0  0  0  0  0  0  0  0  0  0  0
    6.5630   61.4340   28.2880 C   0  0  0  0  0  1  0  0  0  0  0  0
    5.3040   62.2140   26.2740 N   0  0  0  0  0  4  0  0  0  0  0  0
    4.3910   60.2720   27.4150 C   0  0  1  0  0  3  0  0  0  0  0  0
    4.5260   61.3740   25.3030 C   0  0  1  0  0  3  0  0  0  0  0  0
    5.2130   61.5580   27.5940 C   0  0  1  0  0  3  0  0  0  0  0  0
    3.5380   60.6120   26.1870 C   0  0  1  0  0  3  0  0  0  0  0  0
    4.9050   63.1520   26.3230 H   0  0  0  0  0  0  0  0  0  0  0  0
    6.2770   62.3000   25.9800 H   0  0  0  0  0  0  0  0  0  0  0  0
    5.2520   59.0250   27.2640 C   0  0  0  0  0  0  0  0  0  0  0  0
    6.1270   58.9150   26.4020 O   0  0  0  0  0  0  0  0  0  0  0  0
    4.9650   57.8740   28.2220 C   0  0  0  0  0  2  0  0  0  0  0  0
    5.6600   58.0270   29.4500 O   0  0  0  0  0  0  0  0  0  0  0  0
    5.7990   57.1560   29.8530 H   0  0  0  0  0  0  0  0  0  0  0  0
    1.2860   59.7180   25.2040 C   0  0  0  0  0  1  0  0  0  0  0  0
    2.7470   59.4640   25.5400 C   0  0  0  0  0  2  0  0  0  0  0  0
    6.3050   63.1220   20.9480 O   0  0  0  0  0  0  0  0  0  0  0  0
    6.7920   63.2430   20.1180 H   0  0  0  0  0  0  0  0  0  0  0  0
    4.5590   57.8090   22.3070 C   0  0  0  0  0  0  0  0  0  0  0  0
    4.5570   57.0220   20.9760 C   0  0  0  0  0  2  0  0  0  0  0  0
    4.0610   55.5830   21.0830 C   0  0  0  0  0  1  0  0  0  0  0  0
    4.3120   56.4930   24.5760 C   0  0  0  0  0  1  0  0  0  0  0  0
    5.2140   57.0320   23.4810 C   0  0  0  0  0  2  0  0  0  0  0  0
    3.1780   57.9380   22.7100 O   0  0  0  0  0  0  0  0  0  0  0  0
    2.6520   57.2390   22.2880 H   0  0  0  0  0  0  0  0  0  0  0  0
  1 29  1  6  0  0  0
  2 10  1  0  0  0  0
  3  1  1  0  0  0  0
  3  6  1  0  0  0  0
  4  8  1  0  0  0  0
  5  4  1  0  0  0  0
  5 27  1  1  0  0  0
  5  6  1  0  0  0  0
  6  2  2  0  0  0  0
  7  4  1  0  0  0  0
  7  1  1  0  0  0  0
  9  4  1  0  0  0  0
 10 11  2  0  0  0  0
 13 18  1  0  0  0  0
 13 16  1  0  0  0  0
 14 20  1  6  0  0  0
 14 16  1  0  0  0  0
 15 10  1  6  0  0  0
 15 17  1  0  0  0  0
 15 13  1  0  0  0  0
 16 12  1  6  0  0  0
 17 26  1  6  0  0  0
 17 14  1  0  0  0  0
 19 13  1  0  0  0  0
 20 22  1  0  0  0  0
 21 20  2  0  0  0  0
 22 23  1  0  0  0  0
 23 24  1  0  0  0  0
 25 26  1  0  0  0  0
 28 27  1  0  0  0  0
 29 34  1  0  0  0  0
 29 33  1  0  0  0  0
 30 31  1  0  0  0  0
 30 29  1  0  0  0  0
 33 32  1  0  0  0  0
 35 34  1  0  0  0  0
M  END
>  <MODEL>
1

>  <REMARK>
 VINA RESULT:      -5.9      0.000      0.000
  Name = 
  15 active torsions:
  status: ('A' for Active; 'I' for Inactive)
    1  A    between atoms: C_1  and  N_8
    2  A    between atoms: C_1  and  C_23
    3  A    between atoms: C_2  and  C_24
    4  A    between atoms: C_3  and  C_20
    5  A    between atoms: C_4  and  C_9
    6  A    between atoms: C_4  and  C_26
    7  A    between atoms: C_6  and  C_18
    8  A    between atoms: C_6  and  C_20
    9  A    between atoms: C_7  and  C_13
   10  A    between atoms: O_10  and  C_16
   11  A    between atoms: C_12  and  C_17
   12  A    between atoms: C_13  and  C_20
   13  A    between atoms: O_15  and  C_20
   14  A    between atoms: C_17  and  C_28
   15  A    between atoms: O_19  and  C_26
                            x       y       z     vdW  Elec       q    Type
                         _______ _______ _______ _____ _____    ______ ____

>  <TORSDO>
F 11

$$$$
=
 OpenBabel12172412233D

 35 36  0  0  1  0  0  0  0  0999 V2000
    4.2530   56.8210   21.9100 C   0  0  0  0  0  0  0  0  0  0  0  0
    3.8930   56.3610   22.9930 O   0  0  0  0  0  0  0  0  0  0  0  0
    3.9800   56.2650   20.6750 N   0  0  0  0  0  0  0  0  0  0  0  0
    4.2890   56.7790   19.8950 H   0  0  0  0  0  0  0  0  0  0  0  0
    4.1360   59.3950   21.8730 C   0  0  2  0  0  3  0  0  0  0  0  0
    5.8310   58.1680   20.5660 N   0  0  0  0  0  0  0  0  0  0  0  0
    5.0570   58.1480   21.8140 C   0  0  2  0  0  3  0  0  0  0  0  0
    6.2130   60.5620   20.8310 C   0  0  2  0  0  3  0  0  0  0  0  0
    7.6270   59.0940   19.3250 C   0  0  0  0  0  2  0  0  0  0  0  0
    6.6140   59.2400   20.1920 C   0  0  0  0  0  0  0  0  0  0  0  0
    4.6870   60.5940   21.0510 C   0  0  0  0  0  2  0  0  0  0  0  0
    5.7890   57.3850   19.9720 H   0  0  0  0  0  0  0  0  0  0  0  0
    7.0800   61.7000   18.8820 O   0  0  0  0  0  0  0  0  0  0  0  0
    6.6670   61.7940   20.0450 C   0  0  0  0  0  0  0  0  0  0  0  0
    6.5950   63.1610   20.7200 C   0  0  0  0  0  2  0  0  0  0  0  0
    7.2840   64.1460   19.9590 O   0  0  0  0  0  0  0  0  0  0  0  0
    8.0010   63.7270   19.4600 H   0  0  0  0  0  0  0  0  0  0  0  0
    3.7550   59.8320   23.3070 C   0  0  0  0  0  2  0  0  0  0  0  0
    4.9090   59.9500   24.2910 C   0  0  0  0  0  1  0  0  0  0  0  0
    2.3780   55.0910   19.3450 C   0  0  0  0  0  0  0  0  0  0  0  0
    1.8850   52.7620   19.6600 C   0  0  0  0  0  3  0  0  0  0  0  0
    3.3150   55.0550   20.3910 C   0  0  0  0  0  0  0  0  0  0  0  0
    2.8160   52.7030   20.7050 C   0  0  0  0  0  0  0  0  0  0  0  0
    1.6610   53.9580   18.9770 C   0  0  0  0  0  3  0  0  0  0  0  0
    3.5340   53.8520   21.0620 C   0  0  0  0  0  3  0  0  0  0  0  0
    2.1830   56.2840   18.6930 O   0  0  0  0  0  0  0  0  0  0  0  0
    1.3640   56.7320   18.7700 H   0  0  0  0  0  0  0  0  0  0  0  0
    3.1160   51.1790   21.5900 S   0  0  0  0  0  0  0  0  0  0  0  0
    4.4150   50.6130   20.7060 O   0  0  0  0  0  0  0  0  0  0  0  0
    4.2110   49.3540   20.0490 C   0  0  2  0  0  3  0  0  0  0  0  0
    5.5970   48.8560   19.6450 C   0  0  0  0  0  1  0  0  0  0  0  0
    2.1380   48.7490   18.9500 C   0  0  0  0  0  1  0  0  0  0  0  0
    3.3640   49.5300   18.8670 N   0  0  0  0  0  4  0  0  0  0  0  0
    3.8870   49.2350   18.0420 H   0  0  0  0  0  0  0  0  0  0  0  0
    3.1070   50.5150   18.8090 H   0  0  0  0  0  0  0  0  0  0  0  0
  1  2  2  0  0  0  0
  3  1  1  0  0  0  0
  4  3  1  0  0  0  0
  5 18  1  1  0  0  0
  6  7  1  0  0  0  0
  7  5  1  0  0  0  0
  7  1  1  6  0  0  0
  8 14  1  6  0  0  0
  8 11  1  0  0  0  0
  9 10  2  0  0  0  0
 10  6  1  0  0  0  0
 10  8  1  0  0  0  0
 11  5  1  0  0  0  0
 12  6  1  0  0  0  0
 13 14  2  0  0  0  0
 14 15  1  0  0  0  0
 16 15  1  0  0  0  0
 17 16  1  0  0  0  0
 18 19  1  0  0  0  0
 20 22  1  0  0  0  0
 21 23  2  0  0  0  0
 22  3  1  0  0  0  0
 22 25  2  0  0  0  0
 23 25  1  0  0  0  0
 23 28  1  0  0  0  0
 24 20  2  0  0  0  0
 24 21  1  0  0  0  0
 26 27  1  0  0  0  0
 26 20  1  0  0  0  0
 29 28  1  0  0  0  0
 30 31  1  6  0  0  0
 30 29  1  0  0  0  0
 33 32  1  0  0  0  0
 33 30  1  0  0  0  0
 34 33  1  0  0  0  0
 35 33  1  0  0  0  0
M  END
>  <MODEL>
1

>  <REMARK>
 VINA RESULT:      -7.2      0.000      0.000
  Name = 
  14 active torsions:
  status: ('A' for Active; 'I' for Inactive)
    1  A    between atoms: C_1  and  C_12
    2  A    between atoms: S_3  and  C_13
    3  A    between atoms: S_3  and  O_22
    4  A    between atoms: C_4  and  N_19
    5  A    between atoms: C_4  and  C_20
    6  A    between atoms: C_4  and  O_22
    7  A    between atoms: O_5  and  C_27
    8  A    between atoms: C_6  and  O_21
    9  A    between atoms: C_7  and  C_16
   10  A    between atoms: C_11  and  N_26
   11  A    between atoms: C_15  and  N_19
   12  A    between atoms: C_16  and  C_18
   13  A    between atoms: C_17  and  C_23
   14  A    between atoms: C_17  and  C_27
                            x       y       z     vdW  Elec       q    Type
                         _______ _______ _______ _____ _____    ______ ____

>  <TORSDO>
F 11

$$$$

     RDKit          2D

  1  0  0  0  0  0  0  0  0  0999 V2000
    0.0000    0.0000    0.0000 C   0  0  0  0  0  0  0  0  0  0  0  0
M  END
$$$$
=
 OpenBabel12172412233D

 36 38  0  0  1  0  0  0  0  0999 V2000
    7.1470   58.7090   18.6180 N   0  0  0  0  0  0  0  0  0  0  0  0
    6.2470   59.9850   20.5720 C   0  0  0  0  0  0  0  0  0  0  0  0
    7.3810   62.2720   19.3770 C   0  0  0  0  0  3  0  0  0  0  0  0
    7.5320   61.0210   18.7980 C   0  0  0  0  0  0  0  0  0  0  0  0
    8.2600   59.0640   17.7160 C   0  0  1  0  0  3  0  0  0  0  0  0
    6.6560   62.3750   20.5680 C   0  0  0  0  0  3  0  0  0  0  0  0
    6.9770   59.8880   19.3920 C   0  0  0  0  0  0  0  0  0  0  0  0
    8.1550   58.2420   16.4380 C   0  0  0  0  0  1  0  0  0  0  0  0
    6.0760   61.2400   21.1850 C   0  0  0  0  0  0  0  0  0  0  0  0
    8.2490   60.6310   17.5300 C   0  0  2  0  0  0  0  0  0  0  0  0
    6.6470   57.8640   18.6720 H   0  0  0  0  0  0  0  0  0  0  0  0
    3.8780   61.7700   24.8240 C   0  0  0  0  0  3  0  0  0  0  0  0
    4.3710   62.4470   22.5560 C   0  0  0  0  0  3  0  0  0  0  0  0
    4.8040   60.7410   24.6960 C   0  0  0  0  0  0  0  0  0  0  0  0
    5.3100   61.4100   22.4250 C   0  0  0  0  0  0  0  0  0  0  0  0
    3.6600   62.6260   23.7460 C   0  0  0  0  0  3  0  0  0  0  0  0
    5.5130   60.5480   23.5120 C   0  0  0  0  0  3  0  0  0  0  0  0
    5.1130   59.6830   26.0270 S   0  0  0  0  0  0  0  0  0  0  0  0
    3.7540   59.4680   26.8480 O   0  0  0  0  0  0  0  0  0  0  0  0
    3.1590   58.8920   26.3420 H   0  0  0  0  0  0  0  0  0  0  0  0
    6.0850   60.3840   27.0910 O   0  0  0  0  0  0  0  0  0  0  0  0
    6.9700   60.4810   26.7040 H   0  0  0  0  0  0  0  0  0  0  0  0
    5.7780   58.1910   25.6380 N   0  0  0  0  0  0  0  0  0  0  0  0
    4.9040   57.1120   25.1550 C   0  0  0  0  0  2  0  0  0  0  0  0
    5.1110   56.7090   23.6990 C   0  0  0  0  0  1  0  0  0  0  0  0
    6.6230   56.8280   27.5890 C   0  0  0  0  0  1  0  0  0  0  0  0
    6.9480   57.7110   26.3890 C   0  0  0  0  0  2  0  0  0  0  0  0
    9.6040   61.1150   17.5320 O   0  0  0  0  0  0  0  0  0  0  0  0
    9.9190   61.1900   18.4460 H   0  0  0  0  0  0  0  0  0  0  0  0
    5.7490   58.8230   21.1020 O   0  0  0  0  0  0  0  0  0  0  0  0
    4.9010   58.5170   20.8480 H   0  0  0  0  0  0  0  0  0  0  0  0
    7.5320   61.1350   16.2510 C   0  0  0  0  0  2  0  0  0  0  0  0
    8.3740   62.0260   15.4240 N   0  0  0  0  0  4  0  0  0  0  0  0
    8.7430   61.5040   14.6290 H   0  0  0  0  0  0  0  0  0  0  0  0
    9.1480   62.3810   15.9860 H   0  0  0  0  0  0  0  0  0  0  0  0
    7.8130   62.8080   15.0870 H   0  0  0  0  0  0  0  0  0  0  0  0
  1 11  1  0  0  0  0
  1  7  1  0  0  0  0
  2 30  1  0  0  0  0
  2  9  1  0  0  0  0
  3  6  1  0  0  0  0
  4  3  2  0  0  0  0
  4  7  1  0  0  0  0
  5  8  1  6  0  0  0
  5  1  1  0  0  0  0
  6  9  2  0  0  0  0
  7  2  2  0  0  0  0
  9 15  1  0  0  0  0
 10 32  1  6  0  0  0
 10 28  1  0  0  0  0
 10  5  1  0  0  0  0
 10  4  1  0  0  0  0
 13 16  1  0  0  0  0
 14 12  1  0  0  0  0
 14 18  1  0  0  0  0
 15 13  2  0  0  0  0
 15 17  1  0  0  0  0
 16 12  2  0  0  0  0
 17 14  2  0  0  0  0
 18 19  1  0  0  0  0
 18 21  1  0  0  0  0
 20 19  1  0  0  0  0
 22 21  1  0  0  0  0
 23 18  1  0  0  0  0
 23 27  1  0  0  0  0
 24 23  1  0  0  0  0
 25 24  1  0  0  0  0
 27 26  1  0  0  0  0
 28 29  1  0  0  0  0
 31 30  1  0  0  0  0
 33 35  1  0  0  0  0
 33 32  1  0  0  0  0
 34 33  1  0  0  0  0
 36 33  1  0  0  0  0
M  END
>  <MODEL>
1

>  <REMARK>
 VINA RESULT:      -7.2      0.000      0.000
  Name = 
  14 active torsions:
  status: ('A' for Active; 'I' for Inactive)
    1  A    between atoms: C_3  and  O_28
    2  A    between atoms: N_5  and  C_22
    3  A    between atoms: N_6  and  C_14
    4  A    between atoms: N_6  and  S_15
    5  A    between atoms: N_6  and  C_24
    6  A    between atoms: C_8  and  S_15
    7  A    between atoms: C_10  and  C_23
    8  A    between atoms: C_11  and  C_21
    9  A    between atoms: O_12  and  S_15
   10  A    between atoms: C_14  and  C_26
   11  A    between atoms: S_15  and  O_25
   12  A    between atoms: C_16  and  C_24
   13  A    between atoms: O_18  and  C_27
   14  A    between atoms: C_22  and  C_27
                            x       y       z     vdW  Elec       q    Type
                         _______ _______ _______ _____ _____    ______ ____

>  <TORSDO>
F 11

$$$$

     RDKit          2D

  1  0  0  0  0  0  0  0  0  0999 V2000
    0.0000    0.0000    0.0000 C   0  0  0  0  0  0  0  0  0  0  0  0
M  END
$$$$
=
 OpenBabel12172412243D

 29 30  0  0  1  0  0  0  0  0999 V2000
    5.1400   57.8170   22.2750 C   0  0  0  0  0  0  0  0  0  0  0  0
    5.3640   57.9320   23.4750 O   0  0  0  0  0  0  0  0  0  0  0  0
    4.2150   56.7840   20.2080 N   0  0  0  0  0  4  0  0  0  0  0  0
    3.9280   55.5490   22.2040 C   0  0  0  0  0  2  0  0  0  0  0  0
    3.1200   54.8460   21.1180 C   0  0  1  0  0  3  0  0  0  0  0  0
    2.6720   55.5460   18.7060 C   0  0  0  0  0  1  0  0  0  0  0  0
    4.0180   56.9690   21.6640 C   0  0  1  0  0  3  0  0  0  0  0  0
    3.6970   55.4600   19.8300 C   0  0  1  0  0  3  0  0  0  0  0  0
    5.2090   56.8400   19.9860 H   0  0  0  0  0  0  0  0  0  0  0  0
    3.7200   57.5120   19.6930 H   0  0  0  0  0  0  0  0  0  0  0  0
    2.1910   52.6040   21.7120 C   0  0  0  0  0  3  0  0  0  0  0  0
    2.2390   50.8920   21.8000 Cl  0  0  0  0  0  0  0  0  0  0  0  0
    3.1770   53.3420   21.1870 C   0  0  0  0  0  0  0  0  0  0  0  0
    4.3240   52.7670   20.6730 O   0  0  0  0  0  0  0  0  0  0  0  0
    4.5440   52.8890   19.7700 H   0  0  0  0  0  0  0  0  0  0  0  0
    5.9260   58.3410   21.2450 O   0  0  0  0  0  0  0  0  0  0  0  0
    5.8480   62.5040   21.0260 C   0  0  0  0  0  3  0  0  0  0  0  0
    6.7610   60.3990   20.2620 C   0  0  0  0  0  3  0  0  0  0  0  0
    5.0110   61.8280   21.9180 C   0  0  0  0  0  3  0  0  0  0  0  0
    5.8970   59.7360   21.1340 C   0  0  0  0  0  0  0  0  0  0  0  0
    6.7140   61.7910   20.1910 C   0  0  0  0  0  0  0  0  0  0  0  0
    5.0350   60.4370   21.9760 C   0  0  0  0  0  3  0  0  0  0  0  0
    7.4970   62.5490   19.3490 O   0  0  0  0  0  0  0  0  0  0  0  0
    7.5000   61.9310   18.0320 O   0  0  0  0  0  0  0  0  0  0  0  0
    8.7330   62.2370   17.3260 N   0  0  0  0  0  0  0  0  0  0  0  0
    9.5120   62.3150   17.9800 H   0  0  0  0  0  0  0  0  0  0  0  0
    8.9330   61.1050   16.4200 C   0  0  0  0  0  2  0  0  0  0  0  0
    8.5710   59.7840   17.1000 C   0  0  0  0  0  2  0  0  0  0  0  0
    7.7410   58.8600   16.2200 C   0  0  0  0  0  1  0  0  0  0  0  0
  1  2  2  0  0  0  0
  3  7  1  0  0  0  0
  5 13  1  6  0  0  0
  5  4  1  0  0  0  0
  7  4  1  0  0  0  0
  7  1  1  1  0  0  0
  8  6  1  6  0  0  0
  8  3  1  0  0  0  0
  8  5  1  0  0  0  0
  9  3  1  0  0  0  0
 10  3  1  0  0  0  0
 11 12  1  0  0  0  0
 13 11  2  0  0  0  0
 14 13  1  0  0  0  0
 15 14  1  0  0  0  0
 16  1  1  0  0  0  0
 17 19  1  0  0  0  0
 18 20  2  0  0  0  0
 19 22  2  0  0  0  0
 20 16  1  0  0  0  0
 20 22  1  0  0  0  0
 21 18  1  0  0  0  0
 21 17  2  0  0  0  0
 23 21  1  0  0  0  0
 24 23  1  0  0  0  0
 25 26  1  0  0  0  0
 25 24  1  0  0  0  0
 27 28  1  0  0  0  0
 27 25  1  0  0  0  0
 29 28  1  0  0  0  0
M  END
>  <MODEL>
1

>  <REMARK>
 VINA RESULT:      -7.4      0.000      0.000
  Name = 
  12 active torsions:
  status: ('A' for Active; 'I' for Inactive)
    1  A    between atoms: C_1  and  O_16
    2  A    between atoms: C_1  and  C_17
    3  A    between atoms: C_2  and  C_9
    4  A    between atoms: C_2  and  C_22
    5  A    between atoms: C_7  and  C_25
    6  A    between atoms: C_12  and  O_16
    7  A    between atoms: C_13  and  O_24
    8  A    between atoms: N_14  and  O_21
    9  A    between atoms: N_14  and  C_22
   10  A    between atoms: C_15  and  C_19
   11  A    between atoms: O_20  and  C_25
   12  A    between atoms: O_21  and  O_24
                            x       y       z     vdW  Elec       q    Type
                         _______ _______ _______ _____ _____    ______ ____

>  <TORSDO>
F 10

$$$$
=
 OpenBabel12172412253D

 35 37  0  0  1  0  0  0  0  0999 V2000
    5.1600   61.0760   22.7470 C   0  0  0  0  0  0  0  0  0  0  0  0
    4.7890   58.8940   23.6280 C   0  0  0  0  0  0  0  0  0  0  0  0
    5.3160   60.5780   21.4760 C   0  0  0  0  0  0  0  0  0  0  0  0
    5.3820   62.8710   21.3810 O   0  0  0  0  0  0  0  0  0  0  0  0
    5.3330   62.4270   22.8010 O   0  0  0  0  0  0  0  0  0  0  0  0
    5.1650   59.2220   21.2340 C   0  0  0  0  0  3  0  0  0  0  0  0
    5.6160   61.6970   20.5550 C   0  0  1  0  0  3  0  0  0  0  0  0
    4.8410   58.3730   22.3040 C   0  0  0  0  0  0  0  0  0  0  0  0
    4.9130   60.2690   23.8410 C   0  0  0  0  0  3  0  0  0  0  0  0
    3.6770   57.9140   25.6690 C   0  0  0  0  0  0  0  0  0  0  0  0
    4.6410   57.9670   24.6790 N   0  0  0  0  0  0  0  0  0  0  0  0
    2.7120   58.6580   25.7620 O   0  0  0  0  0  0  0  0  0  0  0  0
    5.3210   57.2560   24.7130 H   0  0  0  0  0  0  0  0  0  0  0  0
    5.0130   56.7740   27.5660 C   0  0  0  0  0  0  0  0  0  0  0  0
    3.1340   54.7300   27.3940 C   0  0  0  0  0  3  0  0  0  0  0  0
    3.9420   56.7930   26.6640 C   0  0  0  0  0  0  0  0  0  0  0  0
    5.0870   55.6390   28.4000 C   0  0  0  0  0  0  0  0  0  0  0  0
    3.0100   55.7850   26.5720 N   0  0  0  0  0  0  0  0  0  0  0  0
    4.1460   54.6090   28.3160 C   0  0  0  0  0  3  0  0  0  0  0  0
    7.2360   55.0010   29.1690 O   0  0  0  0  0  0  0  0  0  0  0  0
    5.8230   55.9230   30.6800 N   0  0  0  0  0  0  0  0  0  0  0  0
    6.1460   55.4870   29.4260 C   0  0  0  0  0  0  0  0  0  0  0  0
    6.4800   55.8530   31.4100 H   0  0  0  0  0  0  0  0  0  0  0  0
    4.9340   56.3090   30.8540 H   0  0  0  0  0  0  0  0  0  0  0  0
    6.0360   57.8820   27.6630 C   0  0  0  0  0  2  0  0  0  0  0  0
    7.2360   57.6500   26.7540 C   0  0  0  0  0  1  0  0  0  0  0  0
    4.7340   56.9830   22.0670 N   0  0  0  0  0  0  0  0  0  0  0  0
    3.8950   56.5120   22.2720 H   0  0  0  0  0  0  0  0  0  0  0  0
    5.4990   56.4870   21.6950 H   0  0  0  0  0  0  0  0  0  0  0  0
    7.0420   61.7900   19.9450 C   0  0  2  0  0  3  0  0  0  0  0  0
    7.4960   63.2440   19.8050 C   0  0  0  0  0  1  0  0  0  0  0  0
    7.1410   61.1180   18.6380 N   0  0  0  0  0  0  0  0  0  0  0  0
    6.3340   61.1260   18.0730 H   0  0  0  0  0  0  0  0  0  0  0  0
    8.2470   60.4830   18.1280 C   0  0  0  0  0  3  0  0  0  0  0  0
    8.7610   60.5310   16.8980 C   0  0  0  0  0  2  0  0  0  0  0  0
  1  5  1  0  0  0  0
  1  9  1  0  0  0  0
  2  9  2  0  0  0  0
  2 11  1  0  0  0  0
  3  1  2  0  0  0  0
  4  5  1  0  0  0  0
  6  3  1  0  0  0  0
  6  8  2  0  0  0  0
  7 30  1  1  0  0  0
  7  4  1  0  0  0  0
  7  3  1  0  0  0  0
  8  2  1  0  0  0  0
 10 12  2  0  0  0  0
 10 16  1  0  0  0  0
 11 13  1  0  0  0  0
 11 10  1  0  0  0  0
 14 25  1  0  0  0  0
 14 17  1  0  0  0  0
 15 19  1  0  0  0  0
 16 14  2  0  0  0  0
 17 22  1  0  0  0  0
 18 16  1  0  0  0  0
 18 15  2  0  0  0  0
 19 17  2  0  0  0  0
 20 22  2  0  0  0  0
 21 24  1  0  0  0  0
 21 23  1  0  0  0  0
 22 21  1  0  0  0  0
 26 25  1  0  0  0  0
 27 28  1  0  0  0  0
 27  8  1  0  0  0  0
 29 27  1  0  0  0  0
 30 31  1  6  0  0  0
 32 30  1  0  0  0  0
 33 32  1  0  0  0  0
 34 32  1  0  0  0  0
 35 34  2  0  0  0  0
M  END
>  <MODEL>
1

>  <REMARK>
 VINA RESULT:      -7.0      0.000      0.000
  Name = 
  10 active torsions:
  status: ('A' for Active; 'I' for Inactive)
    1  A    between atoms: C_2  and  C_9
    2  A    between atoms: C_3  and  N_13
    3  A    between atoms: C_4  and  C_16
    4  A    between atoms: C_8  and  N_17
    5  A    between atoms: C_8  and  C_21
    6  A    between atoms: C_8  and  C_26
    7  A    between atoms: C_10  and  N_17
    8  A    between atoms: N_11  and  C_27
    9  A    between atoms: C_12  and  C_28
   10  A    between atoms: C_16  and  C_23
                            x       y       z     vdW  Elec       q    Type
                         _______ _______ _______ _____ _____    ______ ____

>  <TORSDO>
F 8

$$$$

     RDKit          2D

  1  0  0  0  0  0  0  0  0  0999 V2000
    0.0000    0.0000    0.0000 C   0  0  0  0  0  0  0  0  0  0  0  0
M  END
$$$$

     RDKit          2D

  1  0  0  0  0  0  0  0  0  0999 V2000
    0.0000    0.0000    0.0000 C   0  0  0  0  0  0  0  0  0  0  0  0
M  END
$$$$

     RDKit          2D

  1  0  0  0  0  0  0  0  0  0999 V2000
    0.0000    0.0000    0.0000 C   0  0  0  0  0  0  0  0  0  0  0  0
M  END
$$$$
=
 OpenBabel12172412263D

 37 38  0  0  1  0  0  0  0  0999 V2000
    5.1430   61.4750   21.8330 C   0  0  0  0  0  0  0  0  0  0  0  0
    6.9320   62.1380   19.8410 C   0  0  0  0  0  0  0  0  0  0  0  0
    5.3700   62.8160   21.5470 C   0  0  0  0  0  3  0  0  0  0  0  0
    5.8220   60.4280   21.1720 C   0  0  0  0  0  0  0  0  0  0  0  0
    6.2810   63.1510   20.5550 C   0  0  0  0  0  3  0  0  0  0  0  0
    6.7170   60.7740   20.1270 C   0  0  0  0  0  0  0  0  0  0  0  0
    7.9230   58.6850   19.9990 N   0  0  0  0  0  4  0  0  0  0  0  0
    7.5620   59.7890   17.9780 N   0  0  0  0  0  0  0  0  0  0  0  0
    7.4340   59.6940   19.3450 C   0  0  0  0  0  0  0  0  0  0  0  0
    8.3940   57.9670   19.5160 H   0  0  0  0  0  0  0  0  0  0  0  0
    7.8210   58.6360   20.9770 H   0  0  0  0  0  0  0  0  0  0  0  0
    7.6860   60.6850   17.5920 H   0  0  0  0  0  0  0  0  0  0  0  0
    7.5270   58.6620   17.0620 C   0  0  0  0  0  2  0  0  0  0  0  0
    8.8060   58.5890   16.2450 C   0  0  0  0  0  1  0  0  0  0  0  0
    4.2060   61.1950   22.7930 O   0  0  0  0  0  0  0  0  0  0  0  0
    3.4810   61.7750   22.9220 H   0  0  0  0  0  0  0  0  0  0  0  0
    5.5080   59.0550   21.4530 N   0  0  0  0  0  0  0  0  0  0  0  0
    6.1770   58.4830   21.8960 H   0  0  0  0  0  0  0  0  0  0  0  0
    4.2390   58.5160   21.0970 N   0  0  0  0  0  0  0  0  0  0  0  0
    3.6200   58.5430   21.9080 H   0  0  0  0  0  0  0  0  0  0  0  0
    3.8590   56.1270   21.6770 C   0  0  1  0  0  3  0  0  0  0  0  0
    3.5680   56.8900   19.4830 N   0  0  0  0  0  4  0  0  0  0  0  0
    4.3970   57.1310   20.6530 C   0  0  1  0  0  3  0  0  0  0  0  0
    3.6720   54.8720   20.8080 C   0  0  2  0  0  3  0  0  0  0  0  0
    3.4160   55.4240   19.3900 C   0  0  1  0  0  3  0  0  0  0  0  0
    2.0740   55.0990   18.7390 C   0  0  0  0  0  1  0  0  0  0  0  0
    4.0230   57.2540   18.6450 H   0  0  0  0  0  0  0  0  0  0  0  0
    2.6640   57.3570   19.5620 H   0  0  0  0  0  0  0  0  0  0  0  0
    1.5720   54.3040   21.9100 O   0  0  0  0  0  0  0  0  0  0  0  0
    2.5800   53.9520   21.3100 C   0  0  0  0  0  0  0  0  0  0  0  0
    3.8150   52.0210   20.6530 O   0  0  0  0  0  0  0  0  0  0  0  0
    2.7480   52.4760   21.0320 C   0  0  0  0  0  3  0  0  0  0  0  0
    4.2880   56.5470   24.1680 C   0  0  0  0  0  1  0  0  0  0  0  0
    4.8150   55.9590   22.8690 C   0  0  0  0  0  2  0  0  0  0  0  0
    7.8340   62.5480   18.8870 O   0  0  0  0  0  0  0  0  0  0  0  0
    7.7040   63.9990   18.8230 O   0  0  0  0  0  0  0  0  0  0  0  0
    8.3090   64.4060   19.4620 H   0  0  0  0  0  0  0  0  0  0  0  0
  1 15  1  0  0  0  0
  2  6  2  0  0  0  0
  2  5  1  0  0  0  0
  3  1  1  0  0  0  0
  4 17  1  0  0  0  0
  4  1  2  0  0  0  0
  5  3  2  0  0  0  0
  6  4  1  0  0  0  0
  7 11  1  0  0  0  0
  8  9  1  0  0  0  0
  9  7  2  0  0  0  0
  9  6  1  0  0  0  0
 10  7  1  0  0  0  0
 12  8  1  0  0  0  0
 13  8  1  0  0  0  0
 14 13  1  0  0  0  0
 15 16  1  0  0  0  0
 17 18  1  0  0  0  0
 19 17  1  0  0  0  0
 19 20  1  0  0  0  0
 21 34  1  1  0  0  0
 22 28  1  0  0  0  0
 22 23  1  0  0  0  0
 23 19  1  1  0  0  0
 23 21  1  0  0  0  0
 24 30  1  1  0  0  0
 24 21  1  0  0  0  0
 25 26  1  1  0  0  0
 25 22  1  0  0  0  0
 25 24  1  0  0  0  0
 27 22  1  0  0  0  0
 30 29  2  0  0  0  0
 31 32  2  0  0  0  0
 32 30  1  0  0  0  0
 34 33  1  0  0  0  0
 35  2  1  0  0  0  0
 36 35  1  0  0  0  0
 36 37  1  0  0  0  0
M  END
>  <MODEL>
1

>  <REMARK>
 VINA RESULT:      -7.4      0.000      0.000
  Name = 
  14 active torsions:
  status: ('A' for Active; 'I' for Inactive)
    1  A    between atoms: C_1  and  O_20
    2  A    between atoms: C_2  and  C_27
    3  A    between atoms: C_4  and  O_12
    4  A    between atoms: N_5  and  C_11
    5  A    between atoms: N_5  and  N_21
    6  A    between atoms: C_9  and  N_21
    7  A    between atoms: C_10  and  C_18
    8  A    between atoms: C_10  and  C_28
    9  A    between atoms: O_12  and  O_15
   10  A    between atoms: C_13  and  N_19
   11  A    between atoms: C_13  and  C_23
   12  A    between atoms: C_17  and  C_27
   13  A    between atoms: C_22  and  C_26
   14  A    between atoms: C_24  and  C_25
                            x       y       z     vdW  Elec       q    Type
                         _______ _______ _______ _____ _____    ______ ____

>  <TORSDO>
F 11

$$$$

     RDKit          2D

  1  0  0  0  0  0  0  0  0  0999 V2000
    0.0000    0.0000    0.0000 C   0  0  0  0  0  0  0  0  0  0  0  0
M  END
$$$$
=
 OpenBabel12172412263D

 32 33  0  0  1  0  0  0  0  0999 V2000
    3.7760   59.9940   22.9590 C   0  0  0  0  0  0  0  0  0  0  0  0
    4.6260   60.8360   23.6440 N   0  0  0  0  0  0  0  0  0  0  0  0
    3.0320   59.1530   23.4600 O   0  0  0  0  0  0  0  0  0  0  0  0
    5.1930   61.4180   23.0880 H   0  0  0  0  0  0  0  0  0  0  0  0
    5.5720   61.6340   20.7060 C   0  0  1  0  0  3  0  0  0  0  0  0
    4.9270   59.3640   20.7290 C   0  0  1  0  0  3  0  0  0  0  0  0
    4.1720   61.6090   21.1270 N   0  0  0  0  0  4  0  0  0  0  0  0
    3.8320   60.1900   21.4210 C   0  0  2  0  0  3  0  0  0  0  0  0
    6.2240   62.5290   21.4850 F   0  0  0  0  0  0  0  0  0  0  0  0
    6.1530   60.2520   20.9200 C   0  0  1  0  0  3  0  0  0  0  0  0
    3.5760   61.9660   20.3800 H   0  0  0  0  0  0  0  0  0  0  0  0
    4.0290   62.1960   21.9490 H   0  0  0  0  0  0  0  0  0  0  0  0
    7.9310   58.9880   19.8990 O   0  0  0  0  0  0  0  0  0  0  0  0
    7.5430   61.1390   18.9420 C   0  0  0  0  0  1  0  0  0  0  0  0
    7.2710   60.0270   19.9230 C   0  0  0  0  0  0  0  0  0  0  0  0
    5.1320   57.9280   21.2260 C   0  0  0  0  0  2  0  0  0  0  0  0
    4.2140   56.9330   20.5310 C   0  0  0  0  0  1  0  0  0  0  0  0
    5.0220   61.4370   27.7870 C   0  0  0  0  0  3  0  0  0  0  0  0
    5.3490   59.9950   25.8650 C   0  0  0  0  0  3  0  0  0  0  0  0
    4.7880   60.9700   25.0390 C   0  0  0  0  0  0  0  0  0  0  0  0
    4.3370   62.1720   25.6070 C   0  0  0  0  0  0  0  0  0  0  0  0
    5.4660   60.2290   27.2400 C   0  0  0  0  0  0  0  0  0  0  0  0
    4.4510   62.4130   26.9720 C   0  0  0  0  0  3  0  0  0  0  0  0
    3.7780   63.1110   24.7760 O   0  0  0  0  0  0  0  0  0  0  0  0
    3.9390   64.0230   24.9260 H   0  0  0  0  0  0  0  0  0  0  0  0
    6.0150   59.3450   28.1440 O   0  0  0  0  0  0  0  0  0  0  0  0
    6.9990   58.5100   27.4640 O   0  0  0  0  0  0  0  0  0  0  0  0
    6.3600   57.2480   27.2200 C   0  0  0  0  0  3  0  0  0  0  0  0
    5.5550   55.3310   28.7350 C   0  0  0  0  0  1  0  0  0  0  0  0
    6.6610   56.3310   28.4150 C   0  0  0  0  0  2  0  0  0  0  0  0
    6.8370   56.7180   25.8620 C   0  0  0  0  0  2  0  0  0  0  0  0
    5.7660   56.7430   24.7840 C   0  0  0  0  0  1  0  0  0  0  0  0
  1  3  2  0  0  0  0
  1  2  1  0  0  0  0
  2 20  1  0  0  0  0
  4  2  1  0  0  0  0
  5 10  1  0  0  0  0
  5  7  1  0  0  0  0
  5  9  1  1  0  0  0
  6 10  1  0  0  0  0
  6 16  1  1  0  0  0
  6  8  1  0  0  0  0
  7  8  1  0  0  0  0
  7 12  1  0  0  0  0
  8  1  1  1  0  0  0
 10 15  1  6  0  0  0
 11  7  1  0  0  0  0
 13 15  2  0  0  0  0
 14 15  1  0  0  0  0
 17 16  1  0  0  0  0
 19 22  2  0  0  0  0
 20 21  2  0  0  0  0
 20 19  1  0  0  0  0
 21 23  1  0  0  0  0
 22 18  1  0  0  0  0
 22 26  1  0  0  0  0
 23 18  2  0  0  0  0
 24 25  1  0  0  0  0
 24 21  1  0  0  0  0
 27 26  1  0  0  0  0
 28 27  1  0  0  0  0
 28 30  1  0  0  0  0
 30 29  1  0  0  0  0
 31 28  1  0  0  0  0
 32 31  1  0  0  0  0
M  END
>  <MODEL>
1

>  <REMARK>
 VINA RESULT:      -6.7      0.000      0.000
  Name = 
  14 active torsions:
  status: ('A' for Active; 'I' for Inactive)
    1  A    between atoms: C_2  and  C_9
    2  A    between atoms: C_4  and  C_16
    3  A    between atoms: C_6  and  C_15
    4  A    between atoms: C_8  and  C_27
    5  A    between atoms: C_9  and  C_26
    6  A    between atoms: O_10  and  C_13
    7  A    between atoms: C_11  and  N_19
    8  A    between atoms: C_14  and  C_25
    9  A    between atoms: C_14  and  C_26
   10  A    between atoms: C_15  and  C_17
   11  A    between atoms: C_18  and  O_22
   12  A    between atoms: O_20  and  O_22
   13  A    between atoms: O_20  and  C_26
   14  A    between atoms: C_27  and  C_28
                            x       y       z     vdW  Elec       q    Type
                         _______ _______ _______ _____ _____    ______ ____

>  <TORSDO>
F 10

$$$$
=
 OpenBabel12172412273D

 39 40  0  0  1  0  0  0  0  0999 V2000
    4.7780   56.7420   21.5810 C   0  0  1  0  0  3  0  0  0  0  0  0
    5.1240   60.3590   22.6070 C   0  0  1  0  0  3  0  0  0  0  0  0
    4.4010   61.5290   21.9470 C   0  0  0  0  0  1  0  0  0  0  0  0
    4.6090   58.2630   23.7460 C   0  0  1  0  0  3  0  0  0  0  0  0
    4.4360   59.7970   23.8830 C   0  0  2  0  0  0  0  0  0  0  0  0
    4.4470   58.1170   22.2180 C   0  0  1  0  0  3  0  0  0  0  0  0
    5.2730   59.2210   21.6750 N   0  0  0  0  0  4  0  0  0  0  0  0
    6.2510   58.9360   21.6200 H   0  0  0  0  0  0  0  0  0  0  0  0
    4.9730   59.4760   20.7340 H   0  0  0  0  0  0  0  0  0  0  0  0
    3.0110   60.0600   23.8280 O   0  0  0  0  0  0  0  0  0  0  0  0
    2.8050   60.5620   23.0230 H   0  0  0  0  0  0  0  0  0  0  0  0
    5.8830   57.6470   24.3670 C   0  0  0  0  0  2  0  0  0  0  0  0
    5.7570   56.8370   25.6500 C   0  0  0  0  0  1  0  0  0  0  0  0
    4.9470   60.4620   25.1770 C   0  0  0  0  0  2  0  0  0  0  0  0
    4.0630   60.1860   26.3250 N   0  0  0  0  0  4  0  0  0  0  0  0
    3.5460   59.3230   26.1550 H   0  0  0  0  0  0  0  0  0  0  0  0
    3.4060   60.9580   26.4410 H   0  0  0  0  0  0  0  0  0  0  0  0
    4.6240   60.0860   27.1700 H   0  0  0  0  0  0  0  0  0  0  0  0
    3.0140   55.7430   23.0970 C   0  0  0  0  0  3  0  0  0  0  0  0
    3.7690   54.4340   21.2130 C   0  0  0  0  0  3  0  0  0  0  0  0
    2.0850   53.5430   22.7170 C   0  0  0  0  0  3  0  0  0  0  0  0
    3.8280   55.6220   21.9570 C   0  0  0  0  0  0  0  0  0  0  0  0
    2.1450   54.7140   23.4700 C   0  0  0  0  0  3  0  0  0  0  0  0
    2.9010   53.4130   21.5990 C   0  0  0  0  0  0  0  0  0  0  0  0
    2.8510   51.9580   20.6630 S   0  0  0  0  0  0  0  0  0  0  0  0
    4.3380   51.4420   20.3590 O   0  0  0  0  0  0  0  0  0  0  0  0
    4.9440   52.1980   20.3330 H   0  0  0  0  0  0  0  0  0  0  0  0
    2.2290   50.7850   21.5660 O   0  0  0  0  0  0  0  0  0  0  0  0
    2.2020   51.0710   22.4930 H   0  0  0  0  0  0  0  0  0  0  0  0
    2.0250   52.0360   19.2040 N   0  0  0  0  0  0  0  0  0  0  0  0
    1.5530   54.3480   18.2940 C   0  0  0  0  0  1  0  0  0  0  0  0
    1.0270   53.0960   18.9900 C   0  0  0  0  0  2  0  0  0  0  0  0
    1.6500   50.8260   18.4880 C   0  0  0  0  0  2  0  0  0  0  0  0
    2.7300   49.8750   18.6450 N   0  0  0  0  0  4  0  0  0  0  0  0
    3.5370   50.1850   18.1040 H   0  0  0  0  0  0  0  0  0  0  0  0
    2.4270   48.9600   18.3100 H   0  0  0  0  0  0  0  0  0  0  0  0
    2.9850   49.8090   19.6300 H   0  0  0  0  0  0  0  0  0  0  0  0
    4.7400   56.8790   20.1480 O   0  0  0  0  0  0  0  0  0  0  0  0
    4.5670   57.8050   19.9150 H   0  0  0  0  0  0  0  0  0  0  0  0
  1 38  1  6  0  0  0
  1 22  1  0  0  0  0
  2  3  1  6  0  0  0
  2  5  1  0  0  0  0
  4  5  1  0  0  0  0
  4 12  1  6  0  0  0
  5 14  1  1  0  0  0
  6  1  1  6  0  0  0
  6  4  1  0  0  0  0
  7  6  1  0  0  0  0
  7  2  1  0  0  0  0
  8  7  1  0  0  0  0
  9  7  1  0  0  0  0
 10  5  1  0  0  0  0
 11 10  1  0  0  0  0
 12 13  1  0  0  0  0
 14 15  1  0  0  0  0
 15 17  1  0  0  0  0
 15 18  1  0  0  0  0
 16 15  1  0  0  0  0
 19 23  1  0  0  0  0
 20 24  2  0  0  0  0
 20 22  1  0  0  0  0
 21 23  2  0  0  0  0
 22 19  2  0  0  0  0
 24 21  1  0  0  0  0
 25 28  1  0  0  0  0
 25 24  1  0  0  0  0
 26 25  1  0  0  0  0
 27 26  1  0  0  0  0
 28 29  1  0  0  0  0
 30 25  1  0  0  0  0
 31 32  1  0  0  0  0
 32 30  1  0  0  0  0
 33 34  1  0  0  0  0
 33 30  1  0  0  0  0
 34 37  1  0  0  0  0
 35 34  1  0  0  0  0
 36 34  1  0  0  0  0
 39 38  1  0  0  0  0
M  END
>  <MODEL>
1

>  <REMARK>
 VINA RESULT:      -5.9      0.000      0.000
  Name = 
  17 active torsions:
  status: ('A' for Active; 'I' for Inactive)
    1  A    between atoms: N_2  and  C_17
    2  A    between atoms: C_3  and  C_18
    3  A    between atoms: C_3  and  N_19
    4  A    between atoms: O_4  and  C_18
    5  A    between atoms: C_5  and  C_12
    6  A    between atoms: C_5  and  O_25
    7  A    between atoms: C_5  and  C_26
    8  A    between atoms: N_6  and  S_9
    9  A    between atoms: N_6  and  C_17
   10  A    between atoms: N_6  and  C_24
   11  A    between atoms: C_7  and  C_13
   12  A    between atoms: S_9  and  O_21
   13  A    between atoms: S_9  and  C_22
   14  A    between atoms: S_9  and  O_23
   15  A    between atoms: C_11  and  C_14
   16  A    between atoms: C_11  and  C_16
   17  A    between atoms: C_15  and  C_24
                            x       y       z     vdW  Elec       q    Type
                         _______ _______ _______ _____ _____    ______ ____

>  <TORSDO>
F 14

$$$$
=
 OpenBabel12172412283D

 35 36  0  0  1  0  0  0  0  0999 V2000
    3.6440   61.7980   25.0170 C   0  0  0  0  0  0  0  0  0  0  0  0
    4.8210   61.6720   24.3040 N   0  0  0  0  0  0  0  0  0  0  0  0
    2.5910   61.2160   24.7630 O   0  0  0  0  0  0  0  0  0  0  0  0
    5.5590   62.2600   24.5850 H   0  0  0  0  0  0  0  0  0  0  0  0
    3.7360   62.8590   26.1370 C   0  0  1  0  0  3  0  0  0  0  0  0
    2.4870   62.9440   26.9170 N   0  0  0  0  0  4  0  0  0  0  0  0
    1.9690   63.1830   29.2760 C   0  0  0  0  0  1  0  0  0  0  0  0
    4.3160   63.7460   28.2510 C   0  0  2  0  0  0  0  0  0  0  0  0
    4.7930   62.6600   27.2420 C   0  0  1  0  0  3  0  0  0  0  0  0
    2.7640   63.7580   28.1090 C   0  0  1  0  0  3  0  0  0  0  0  0
    2.1880   62.0100   27.1970 H   0  0  0  0  0  0  0  0  0  0  0  0
    1.7440   63.3660   26.3600 H   0  0  0  0  0  0  0  0  0  0  0  0
    4.8480   65.0140   27.7540 O   0  0  0  0  0  0  0  0  0  0  0  0
    5.7540   65.1350   28.0810 H   0  0  0  0  0  0  0  0  0  0  0  0
    4.8050   61.2160   27.8010 C   0  0  0  0  0  2  0  0  0  0  0  0
    6.1180   60.4890   27.5370 C   0  0  0  0  0  1  0  0  0  0  0  0
    4.8540   63.6520   29.6840 C   0  0  0  0  0  2  0  0  0  0  0  0
    4.9930   64.9660   30.2330 O   0  0  0  0  0  0  0  0  0  0  0  0
    4.2410   65.5120   29.9580 H   0  0  0  0  0  0  0  0  0  0  0  0
    5.8670   60.6630   20.9190 C   0  0  0  0  0  3  0  0  0  0  0  0
    5.5540   61.4170   22.0420 C   0  0  0  0  0  0  0  0  0  0  0  0
    5.7270   59.2760   20.9770 C   0  0  0  0  0  3  0  0  0  0  0  0
    4.9730   59.4180   23.2680 C   0  0  0  0  0  3  0  0  0  0  0  0
    5.2790   58.6460   22.1440 C   0  0  0  0  0  0  0  0  0  0  0  0
    5.1030   60.8080   23.2240 C   0  0  0  0  0  0  0  0  0  0  0  0
    5.6810   62.7830   22.0260 O   0  0  0  0  0  0  0  0  0  0  0  0
    6.5040   63.1790   22.2350 H   0  0  0  0  0  0  0  0  0  0  0  0
    5.2000   57.2850   22.0450 O   0  0  0  0  0  0  0  0  0  0  0  0
    3.4640   55.6680   22.4830 C   0  0  0  0  0  1  0  0  0  0  0  0
    4.0300   56.6800   21.4870 C   0  0  2  0  0  3  0  0  0  0  0  0
    4.4480   55.9750   20.2720 N   0  0  0  0  0  4  0  0  0  0  0  0
    4.3120   54.9750   20.4180 H   0  0  0  0  0  0  0  0  0  0  0  0
    5.4250   56.2170   20.1090 H   0  0  0  0  0  0  0  0  0  0  0  0
    2.4930   55.4940   18.8080 C   0  0  0  0  0  1  0  0  0  0  0  0
    3.7080   56.3720   19.0760 C   0  0  0  0  0  2  0  0  0  0  0  0
  2  4  1  0  0  0  0
  2  1  1  0  0  0  0
  3  1  2  0  0  0  0
  5  1  1  6  0  0  0
  5  6  1  0  0  0  0
  5  9  1  0  0  0  0
  6 11  1  0  0  0  0
  6 10  1  0  0  0  0
  8 17  1  1  0  0  0
  9 15  1  1  0  0  0
  9  8  1  0  0  0  0
 10  8  1  0  0  0  0
 10  7  1  1  0  0  0
 12  6  1  0  0  0  0
 13 14  1  0  0  0  0
 13  8  1  0  0  0  0
 16 15  1  0  0  0  0
 17 18  1  0  0  0  0
 19 18  1  0  0  0  0
 20 22  2  0  0  0  0
 20 21  1  0  0  0  0
 21 25  2  0  0  0  0
 22 24  1  0  0  0  0
 24 23  2  0  0  0  0
 25 23  1  0  0  0  0
 25  2  1  0  0  0  0
 26 21  1  0  0  0  0
 26 27  1  0  0  0  0
 28 24  1  0  0  0  0
 30 28  1  0  0  0  0
 30 29  1  1  0  0  0
 31 32  1  0  0  0  0
 31 30  1  0  0  0  0
 33 31  1  0  0  0  0
 34 35  1  0  0  0  0
 35 31  1  0  0  0  0
M  END
>  <MODEL>
1

>  <REMARK>
 VINA RESULT:      -6.3      0.000      0.000
  Name = 
  15 active torsions:
  status: ('A' for Active; 'I' for Inactive)
    1  A    between atoms: C_1  and  C_4
    2  A    between atoms: C_3  and  C_16
    3  A    between atoms: C_3  and  O_20
    4  A    between atoms: O_5  and  C_16
    5  A    between atoms: C_6  and  O_23
    6  A    between atoms: N_7  and  C_13
    7  A    between atoms: N_7  and  C_27
    8  A    between atoms: O_8  and  C_13
    9  A    between atoms: O_8  and  C_22
   10  A    between atoms: C_9  and  C_13
   11  A    between atoms: N_10  and  C_26
   12  A    between atoms: C_14  and  C_25
   13  A    between atoms: C_17  and  C_18
   14  A    between atoms: C_17  and  C_21
   15  A    between atoms: C_19  and  C_27
                            x       y       z     vdW  Elec       q    Type
                         _______ _______ _______ _____ _____    ______ ____

>  <TORSDO>
F 11

$$$$
=
 OpenBabel12172412293D

 36 38  0  0  1  0  0  0  0  0999 V2000
    4.0360   58.2300   20.4580 F   0  0  0  0  0  0  0  0  0  0  0  0
    5.5020   58.4810   22.2030 N   0  0  0  0  0  0  0  0  0  0  0  0
    4.7810   57.7080   21.4470 C   0  0  0  0  0  0  0  0  0  0  0  0
    1.9170   54.0000   24.1670 O   0  0  0  0  0  0  0  0  0  0  0  0
    4.1610   55.5860   20.4260 N   0  0  0  0  0  4  0  0  0  0  0  0
    1.1830   53.0980   22.0360 C   0  0  1  0  0  3  0  0  0  0  0  0
    2.0740   54.2800   19.9520 C   0  0  0  0  0  2  0  0  0  0  0  0
    0.8350   53.7410   20.6880 C   0  0  0  0  0  2  0  0  0  0  0  0
    3.2110   54.6010   20.9210 C   0  0  2  0  0  3  0  0  0  0  0  0
    1.9380   54.1000   22.9400 C   0  0  0  0  0  0  0  0  0  0  0  0
    4.7920   56.1960   21.6310 C   0  0  2  0  0  3  0  0  0  0  0  0
    3.9770   55.7100   22.8610 C   0  0  2  0  0  3  0  0  0  0  0  0
    2.6840   55.2070   22.2170 C   0  0  1  0  0  3  0  0  0  0  0  0
    3.6780   56.3000   19.8810 H   0  0  0  0  0  0  0  0  0  0  0  0
    4.8580   55.1570   19.8170 H   0  0  0  0  0  0  0  0  0  0  0  0
   -0.0370   52.6380   22.7150 N   0  0  0  0  0  4  0  0  0  0  0  0
   -0.4540   53.4150   23.2300 H   0  0  0  0  0  0  0  0  0  0  0  0
    0.1990   51.8890   23.3650 H   0  0  0  0  0  0  0  0  0  0  0  0
   -0.7020   52.2930   22.0230 H   0  0  0  0  0  0  0  0  0  0  0  0
    4.6230   56.7070   25.1210 C   0  0  0  0  0  2  0  0  0  0  0  0
    3.8910   56.6960   23.9990 C   0  0  0  0  0  3  0  0  0  0  0  0
    5.1560   62.5400   21.4760 C   0  0  0  0  0  3  0  0  0  0  0  0
    3.4590   60.0840   23.4230 N   0  0  0  0  0  0  0  0  0  0  0  0
    6.1780   61.8520   20.8290 C   0  0  0  0  0  0  0  0  0  0  0  0
    4.2650   61.9750   22.3300 N   0  0  0  0  0  0  0  0  0  0  0  0
    6.2930   60.4870   21.0840 C   0  0  0  0  0  3  0  0  0  0  0  0
    4.3970   60.6550   22.5530 C   0  0  0  0  0  0  0  0  0  0  0  0
    5.3860   59.8600   21.9400 C   0  0  0  0  0  0  0  0  0  0  0  0
    2.7720   60.6490   23.8460 H   0  0  0  0  0  0  0  0  0  0  0  0
    3.4870   59.1180   23.6120 H   0  0  0  0  0  0  0  0  0  0  0  0
    7.3230   62.6500   19.7260 S   0  0  0  0  0  0  0  0  0  0  0  0
    7.1310   61.6670   18.3910 O   0  0  0  0  0  0  0  0  0  0  0  0
    8.9020   61.2860   16.7080 C   0  0  0  0  0  1  0  0  0  0  0  0
    8.2320   60.8310   18.0060 C   0  0  2  0  0  3  0  0  0  0  0  0
    8.0100   58.7280   16.5910 C   0  0  0  0  0  1  0  0  0  0  0  0
    7.8810   59.3340   17.9810 C   0  0  0  0  0  2  0  0  0  0  0  0
  1  3  1  0  0  0  0
  3  2  2  0  0  0  0
  5  9  1  0  0  0  0
  5 11  1  0  0  0  0
  6 16  1  1  0  0  0
  6 10  1  0  0  0  0
  7  8  1  0  0  0  0
  8  6  1  0  0  0  0
  9  7  1  6  0  0  0
  9 13  1  0  0  0  0
 10  4  2  0  0  0  0
 11  3  1  6  0  0  0
 11 12  1  0  0  0  0
 12 21  1  1  0  0  0
 13 12  1  0  0  0  0
 13 10  1  1  0  0  0
 14  5  1  0  0  0  0
 15  5  1  0  0  0  0
 16 17  1  0  0  0  0
 16 18  1  0  0  0  0
 19 16  1  0  0  0  0
 21 20  2  0  0  0  0
 22 25  1  0  0  0  0
 23 30  1  0  0  0  0
 23 29  1  0  0  0  0
 24 26  1  0  0  0  0
 24 22  2  0  0  0  0
 25 27  2  0  0  0  0
 26 28  2  0  0  0  0
 27 23  1  0  0  0  0
 28  2  1  0  0  0  0
 28 27  1  0  0  0  0
 31 24  1  0  0  0  0
 32 31  1  0  0  0  0
 34 33  1  6  0  0  0
 34 32  1  0  0  0  0
 35 36  1  0  0  0  0
 36 34  1  0  0  0  0
M  END
>  <MODEL>
1

>  <REMARK>
 VINA RESULT:      -7.6      0.000      0.000
  Name = 
  10 active torsions:
  status: ('A' for Active; 'I' for Inactive)
    1  A    between atoms: S_1  and  C_8
    2  A    between atoms: S_1  and  O_21
    3  A    between atoms: N_7  and  C_26
    4  A    between atoms: C_9  and  N_20
    5  A    between atoms: C_10  and  C_16
    6  A    between atoms: C_13  and  C_25
    7  A    between atoms: C_16  and  C_29
    8  A    between atoms: O_21  and  C_29
    9  A    between atoms: C_22  and  C_27
   10  A    between atoms: C_23  and  C_29
                            x       y       z     vdW  Elec       q    Type
                         _______ _______ _______ _____ _____    ______ ____

>  <TORSDO>
F 8

$$$$

     RDKit          2D

  1  0  0  0  0  0  0  0  0  0999 V2000
    0.0000    0.0000    0.0000 C   0  0  0  0  0  0  0  0  0  0  0  0
M  END
$$$$
=
 OpenBabel12172412303D

 37 39  0  0  1  0  0  0  0  0999 V2000
    4.7860   59.7350   21.7980 C   0  0  0  0  0  0  0  0  0  0  0  0
    5.0060   62.0990   21.8710 C   0  0  0  0  0  3  0  0  0  0  0  0
    6.5850   60.7640   20.5550 C   0  0  0  0  0  0  0  0  0  0  0  0
    5.2730   57.5420   21.5850 C   0  0  1  0  0  3  0  0  0  0  0  0
    5.9030   59.6310   20.9760 C   0  0  0  0  0  0  0  0  0  0  0  0
    6.1360   62.0050   21.0340 C   0  0  0  0  0  3  0  0  0  0  0  0
    4.2770   60.9600   22.2120 C   0  0  0  0  0  0  0  0  0  0  0  0
    6.1490   58.2740   20.6380 N   0  0  0  0  0  0  0  0  0  0  0  0
    4.2340   58.4600   22.0950 N   0  0  0  0  0  0  0  0  0  0  0  0
    6.7510   57.9110   19.9490 H   0  0  0  0  0  0  0  0  0  0  0  0
    3.3780   58.2420   22.5290 H   0  0  0  0  0  0  0  0  0  0  0  0
    3.5770   56.5750   19.8830 N   0  0  0  0  0  4  0  0  0  0  0  0
    2.9320   55.3070   19.5410 C   0  0  1  0  0  3  0  0  0  0  0  0
    3.4060   54.3210   20.6250 C   0  0  1  0  0  3  0  0  0  0  0  0
    4.0340   55.1990   21.7290 C   0  0  1  0  0  3  0  0  0  0  0  0
    4.6630   56.3000   20.8480 C   0  0  2  0  0  3  0  0  0  0  0  0
    1.4280   55.5420   19.4570 C   0  0  0  0  0  1  0  0  0  0  0  0
    3.0700   55.7270   22.7930 C   0  0  0  0  0  1  0  0  0  0  0  0
    2.8950   57.2060   20.3020 H   0  0  0  0  0  0  0  0  0  0  0  0
    3.9560   57.0110   19.0430 H   0  0  0  0  0  0  0  0  0  0  0  0
    1.5120   53.3690   21.8270 O   0  0  0  0  0  0  0  0  0  0  0  0
    2.4090   53.2320   20.9950 C   0  0  0  0  0  0  0  0  0  0  0  0
    2.5910   51.8840   20.2980 C   0  0  0  0  0  2  0  0  0  0  0  0
    2.0790   51.9030   18.9760 O   0  0  0  0  0  0  0  0  0  0  0  0
    2.3420   51.0920   18.5150 H   0  0  0  0  0  0  0  0  0  0  0  0
    3.2050   61.0140   23.1180 N   0  0  0  0  0  0  0  0  0  0  0  0
    3.2490   61.6130   23.8970 H   0  0  0  0  0  0  0  0  0  0  0  0
    2.4100   60.4520   22.9730 H   0  0  0  0  0  0  0  0  0  0  0  0
    8.0110   60.6430   19.4920 S   0  0  0  0  0  0  0  0  0  0  0  0
    7.4440   59.4880   18.4300 O   0  0  0  0  0  0  0  0  0  0  0  0
    8.1380   58.3200   16.3670 C   0  0  0  0  0  1  0  0  0  0  0  0
    7.7690   59.6450   17.0380 C   0  0  2  0  0  3  0  0  0  0  0  0
    8.7960   60.7740   16.7940 C   0  0  0  0  0  2  0  0  0  0  0  0
    8.3800   61.7770   15.8080 N   0  0  0  0  0  4  0  0  0  0  0  0
    7.8740   61.3190   15.0500 H   0  0  0  0  0  0  0  0  0  0  0  0
    9.2040   62.2470   15.4330 H   0  0  0  0  0  0  0  0  0  0  0  0
    7.7720   62.4630   16.2570 H   0  0  0  0  0  0  0  0  0  0  0  0
  1  9  1  0  0  0  0
  1  7  1  0  0  0  0
  2  7  2  0  0  0  0
  3  5  1  0  0  0  0
  3  6  2  0  0  0  0
  4  8  1  6  0  0  0
  4  9  1  0  0  0  0
  5  1  2  0  0  0  0
  6  2  1  0  0  0  0
  7 26  1  0  0  0  0
  8  5  1  0  0  0  0
  9 11  1  0  0  0  0
 10  8  1  0  0  0  0
 12 19  1  0  0  0  0
 13 17  1  1  0  0  0
 13 12  1  0  0  0  0
 13 14  1  0  0  0  0
 14 22  1  1  0  0  0
 14 15  1  0  0  0  0
 15 18  1  1  0  0  0
 16 12  1  6  0  0  0
 16  4  1  0  0  0  0
 16 15  1  0  0  0  0
 20 12  1  0  0  0  0
 22 21  2  0  0  0  0
 23 22  1  0  0  0  0
 24 23  1  0  0  0  0
 25 24  1  0  0  0  0
 26 27  1  0  0  0  0
 28 26  1  0  0  0  0
 29  3  1  0  0  0  0
 30 29  1  0  0  0  0
 32 31  1  1  0  0  0
 32 30  1  0  0  0  0
 33 32  1  0  0  0  0
 34 37  1  0  0  0  0
 34 33  1  0  0  0  0
 35 34  1  0  0  0  0
 36 34  1  0  0  0  0
M  END
>  <MODEL>
1

>  <REMARK>
 VINA RESULT:      -6.7      0.000      0.000
  Name = 
  13 active torsions:
  status: ('A' for Active; 'I' for Inactive)
    1  A    between atoms: C_1  and  O_19
    2  A    between atoms: C_1  and  C_25
    3  A    between atoms: C_5  and  C_22
    4  A    between atoms: C_7  and  C_25
    5  A    between atoms: C_8  and  S_10
    6  A    between atoms: C_9  and  C_16
    7  A    between atoms: S_10  and  O_20
    8  A    between atoms: C_11  and  C_27
    9  A    between atoms: N_12  and  C_17
   10  A    between atoms: C_14  and  C_26
   11  A    between atoms: N_18  and  C_21
   12  A    between atoms: O_20  and  C_26
   13  A    between atoms: C_21  and  C_26
                            x       y       z     vdW  Elec       q    Type
                         _______ _______ _______ _____ _____    ______ ____

>  <TORSDO>
F 10

$$$$

     RDKit          2D

  1  0  0  0  0  0  0  0  0  0999 V2000
    0.0000    0.0000    0.0000 C   0  0  0  0  0  0  0  0  0  0  0  0
M  END
$$$$
=
 OpenBabel12172412303D

 34 35  0  0  1  0  0  0  0  0999 V2000
    3.1310   58.2480   24.5490 C   0  0  0  0  0  0  0  0  0  0  0  0
    2.0780   58.6760   24.0760 O   0  0  0  0  0  0  0  0  0  0  0  0
    4.0070   57.4010   23.8990 N   0  0  0  0  0  0  0  0  0  0  0  0
    4.8330   57.1810   24.3910 H   0  0  0  0  0  0  0  0  0  0  0  0
    4.7270   57.8670   26.4370 N   0  0  0  0  0  4  0  0  0  0  0  0
    4.2910   60.1390   26.0110 C   0  0  1  0  0  3  0  0  0  0  0  0
    6.9220   58.3520   27.3180 C   0  0  0  0  0  1  0  0  0  0  0  0
    3.6480   58.7440   25.9200 C   0  0  1  0  0  3  0  0  0  0  0  0
    5.4280   58.5800   27.5120 C   0  0  1  0  0  3  0  0  0  0  0  0
    4.9220   60.0300   27.4150 C   0  0  1  0  0  3  0  0  0  0  0  0
    5.3810   57.6460   25.6850 H   0  0  0  0  0  0  0  0  0  0  0  0
    4.3310   56.9970   26.7920 H   0  0  0  0  0  0  0  0  0  0  0  0
    5.8270   61.1730   27.8550 C   0  0  0  0  0  0  0  0  0  0  0  0
    7.0340   61.0240   28.0700 O   0  0  0  0  0  0  0  0  0  0  0  0
    5.2410   62.5790   27.8750 C   0  0  0  0  0  2  0  0  0  0  0  0
    5.9290   63.4200   26.9610 O   0  0  0  0  0  0  0  0  0  0  0  0
    6.3780   62.8750   26.2960 H   0  0  0  0  0  0  0  0  0  0  0  0
    5.1280   61.4170   24.0050 C   0  0  0  0  0  2  0  0  0  0  0  0
    5.2660   60.4160   24.8830 C   0  0  0  0  0  3  0  0  0  0  0  0
    3.8780   56.8080   22.6260 C   0  0  0  0  0  0  0  0  0  0  0  0
    3.2060   55.0350   21.0850 C   0  0  0  0  0  0  0  0  0  0  0  0
    4.3790   57.5440   21.5440 C   0  0  0  0  0  0  0  0  0  0  0  0
    3.7180   55.8090   20.0220 C   0  0  0  0  0  3  0  0  0  0  0  0
    4.3030   57.0560   20.2460 C   0  0  0  0  0  3  0  0  0  0  0  0
    3.2920   55.5620   22.3880 C   0  0  0  0  0  3  0  0  0  0  0  0
    4.9470   58.7680   21.7980 O   0  0  0  0  0  0  0  0  0  0  0  0
    5.4530   58.8970   22.5750 H   0  0  0  0  0  0  0  0  0  0  0  0
    2.5620   53.6720   20.7830 C   0  0  0  0  0  0  0  0  0  0  0  0
    3.6480   52.7440   20.5800 O   0  0  0  0  0  0  0  0  0  0  0  0
    4.3860   53.2000   20.1470 H   0  0  0  0  0  0  0  0  0  0  0  0
    2.2340   51.7740   22.5180 C   0  0  0  0  0  1  0  0  0  0  0  0
    1.7180   53.0930   21.9490 C   0  0  0  0  0  2  0  0  0  0  0  0
    1.7850   53.7230   19.4440 C   0  0  0  0  0  2  0  0  0  0  0  0
    0.4130   54.3800   19.5160 C   0  0  0  0  0  1  0  0  0  0  0  0
  2  1  2  0  0  0  0
  3  4  1  0  0  0  0
  3  1  1  0  0  0  0
  5 12  1  0  0  0  0
  5  9  1  0  0  0  0
  6 19  1  6  0  0  0
  6 10  1  0  0  0  0
  8  1  1  6  0  0  0
  8  6  1  0  0  0  0
  8  5  1  0  0  0  0
  9  7  1  6  0  0  0
 10  9  1  0  0  0  0
 10 13  1  6  0  0  0
 11  5  1  0  0  0  0
 13 15  1  0  0  0  0
 13 14  2  0  0  0  0
 16 15  1  0  0  0  0
 17 16  1  0  0  0  0
 18 19  2  0  0  0  0
 20  3  1  0  0  0  0
 21 25  2  0  0  0  0
 22 26  1  0  0  0  0
 22 20  2  0  0  0  0
 23 24  2  0  0  0  0
 23 21  1  0  0  0  0
 24 22  1  0  0  0  0
 25 20  1  0  0  0  0
 26 27  1  0  0  0  0
 28 21  1  0  0  0  0
 28 32  1  0  0  0  0
 29 28  1  0  0  0  0
 30 29  1  0  0  0  0
 32 31  1  0  0  0  0
 33 34  1  0  0  0  0
 33 28  1  0  0  0  0
M  END
>  <MODEL>
1

>  <REMARK>
 VINA RESULT:      -6.4      0.000      0.000
  Name = 
  14 active torsions:
  status: ('A' for Active; 'I' for Inactive)
    1  A    between atoms: C_1  and  N_23
    2  A    between atoms: C_2  and  C_15
    3  A    between atoms: C_3  and  C_25
    4  A    between atoms: C_3  and  C_26
    5  A    between atoms: O_4  and  C_27
    6  A    between atoms: C_6  and  C_18
    7  A    between atoms: C_7  and  C_27
    8  A    between atoms: O_8  and  C_25
    9  A    between atoms: C_9  and  C_28
   10  A    between atoms: C_11  and  O_20
   11  A    between atoms: C_13  and  C_24
   12  A    between atoms: C_13  and  C_27
   13  A    between atoms: C_14  and  C_17
   14  A    between atoms: C_18  and  C_27
                            x       y       z     vdW  Elec       q    Type
                         _______ _______ _______ _____ _____    ______ ____

>  <TORSDO>
F 11

$$$$
=
 OpenBabel12172412313D

 37 38  0  0  1  0  0  0  0  0999 V2000
    2.5970   54.8160   19.3580 C   0  0  0  0  0  0  0  0  0  0  0  0
    3.2910   55.6960   21.4750 C   0  0  0  0  0  3  0  0  0  0  0  0
    3.9510   56.7950   19.4240 C   0  0  0  0  0  3  0  0  0  0  0  0
    3.2510   55.8360   18.6880 C   0  0  0  0  0  3  0  0  0  0  0  0
    3.9990   56.7400   20.8320 C   0  0  0  0  0  0  0  0  0  0  0  0
    2.6160   54.7070   20.7540 C   0  0  0  0  0  0  0  0  0  0  0  0
    1.9210   53.8710   18.6340 O   0  0  0  0  0  0  0  0  0  0  0  0
    2.1990   53.6590   17.7650 H   0  0  0  0  0  0  0  0  0  0  0  0
    1.8140   53.6920   21.3350 N   0  0  0  0  0  0  0  0  0  0  0  0
    0.8350   53.6790   21.2360 H   0  0  0  0  0  0  0  0  0  0  0  0
    2.5350   52.6590   22.0940 C   0  0  0  0  0  2  0  0  0  0  0  0
    1.7370   51.3960   20.1020 N   0  0  0  0  0  4  0  0  0  0  0  0
    3.6810   50.5230   21.1640 C   0  0  1  0  0  3  0  0  0  0  0  0
    3.5110   49.9320   19.7440 C   0  0  2  0  0  3  0  0  0  0  0  0
    1.7600   50.2730   17.9220 C   0  0  0  0  0  1  0  0  0  0  0  0
    2.3530   51.2700   21.4360 C   0  0  1  0  0  3  0  0  0  0  0  0
    2.0340   50.1400   19.4140 C   0  0  2  0  0  3  0  0  0  0  0  0
    3.9940   49.5130   22.2670 C   0  0  0  0  0  1  0  0  0  0  0  0
    2.1400   52.1840   19.5970 H   0  0  0  0  0  0  0  0  0  0  0  0
    0.7330   51.5660   20.1640 H   0  0  0  0  0  0  0  0  0  0  0  0
    3.2570   47.5540   19.5480 O   0  0  0  0  0  0  0  0  0  0  0  0
    4.0340   48.5150   19.5570 C   0  0  0  0  0  0  0  0  0  0  0  0
    5.5240   48.2820   19.3380 C   0  0  0  0  0  2  0  0  0  0  0  0
    6.1830   49.4760   18.9380 O   0  0  0  0  0  0  0  0  0  0  0  0
    5.6100   50.2370   19.1230 H   0  0  0  0  0  0  0  0  0  0  0  0
    4.7530   57.7800   21.6620 C   0  0  2  0  0  0  0  0  0  0  0  0
    5.9840   58.1400   20.9750 N   0  0  0  0  0  4  0  0  0  0  0  0
    6.6020   57.3290   20.9370 H   0  0  0  0  0  0  0  0  0  0  0  0
    6.4470   58.8950   21.4790 H   0  0  0  0  0  0  0  0  0  0  0  0
    5.7670   58.4470   20.0270 H   0  0  0  0  0  0  0  0  0  0  0  0
    5.2370   57.1990   22.8630 O   0  0  0  0  0  0  0  0  0  0  0  0
    5.5830   57.8960   23.4430 H   0  0  0  0  0  0  0  0  0  0  0  0
    3.9420   59.0850   22.0270 C   0  0  0  0  0  3  0  0  0  0  0  0
    3.8130   59.3530   23.5490 C   0  0  0  0  0  2  0  0  0  0  0  0
    2.3760   59.2830   24.0570 C   0  0  0  0  0  1  0  0  0  0  0  0
    4.3540   60.3580   21.2320 C   0  0  0  0  0  2  0  0  0  0  0  0
    4.6740   61.6070   22.0430 C   0  0  0  0  0  1  0  0  0  0  0  0
  1  6  1  0  0  0  0
  3  5  2  0  0  0  0
  4  1  2  0  0  0  0
  4  3  1  0  0  0  0
  5  2  1  0  0  0  0
  5 26  1  0  0  0  0
  6  9  1  0  0  0  0
  6  2  2  0  0  0  0
  7  1  1  0  0  0  0
  8  7  1  0  0  0  0
  9 11  1  0  0  0  0
 10  9  1  0  0  0  0
 12 20  1  0  0  0  0
 12 16  1  0  0  0  0
 13 16  1  0  0  0  0
 13 18  1  1  0  0  0
 14 22  1  1  0  0  0
 14 13  1  0  0  0  0
 16 11  1  6  0  0  0
 17 15  1  6  0  0  0
 17 14  1  0  0  0  0
 17 12  1  0  0  0  0
 19 12  1  0  0  0  0
 21 22  2  0  0  0  0
 23 22  1  0  0  0  0
 24 25  1  0  0  0  0
 24 23  1  0  0  0  0
 26 33  1  1  0  0  0
 26 31  1  0  0  0  0
 27 29  1  0  0  0  0
 27 26  1  0  0  0  0
 28 27  1  0  0  0  0
 30 27  1  0  0  0  0
 31 32  1  0  0  0  0
 33 34  1  0  0  0  0
 34 35  1  0  0  0  0
 36 33  1  0  0  0  0
 36 37  1  0  0  0  0
M  END
>  <MODEL>
1

>  <REMARK>
 VINA RESULT:      -6.3      0.000      0.000
  Name = 
  17 active torsions:
  status: ('A' for Active; 'I' for Inactive)
    1  A    between atoms: C_1  and  O_14
    2  A    between atoms: C_1  and  C_27
    3  A    between atoms: C_3  and  O_7
    4  A    between atoms: C_3  and  N_20
    5  A    between atoms: C_3  and  C_22
    6  A    between atoms: C_3  and  C_24
    7  A    between atoms: C_4  and  O_18
    8  A    between atoms: C_8  and  C_23
    9  A    between atoms: C_10  and  C_15
   10  A    between atoms: C_10  and  C_24
   11  A    between atoms: C_11  and  C_21
   12  A    between atoms: C_11  and  C_24
   13  A    between atoms: C_12  and  C_27
   14  A    between atoms: C_13  and  C_17
   15  A    between atoms: C_16  and  C_28
   16  A    between atoms: N_25  and  C_26
   17  A    between atoms: N_25  and  C_28
                            x       y       z     vdW  Elec       q    Type
                         _______ _______ _______ _____ _____    ______ ____

>  <TORSDO>
F 13

$$$$
=
 OpenBabel12172412323D

 36 37  0  0  0  0  0  0  0  0999 V2000
    3.9980   58.3290   22.1810 N   0  0  0  0  0  0  0  0  0  0  0  0
    5.5870   57.2740   23.4960 O   0  0  0  0  0  0  0  0  0  0  0  0
    4.5170   57.2700   22.9020 C   0  0  0  0  0  0  0  0  0  0  0  0
    3.1190   58.1680   21.7700 H   0  0  0  0  0  0  0  0  0  0  0  0
    2.9490   55.8810   24.0920 N   0  0  0  0  0  0  0  0  0  0  0  0
    3.4290   55.2090   21.7980 C   0  0  0  0  0  0  0  0  0  0  0  0
    2.1150   54.8230   24.2380 C   0  0  0  0  0  0  0  0  0  0  0  0
    3.5980   56.0600   22.8930 C   0  0  0  0  0  0  0  0  0  0  0  0
    1.9000   53.9080   23.2120 C   0  0  0  0  0  0  0  0  0  0  0  0
    1.4550   54.7120   25.5810 C   0  0  0  0  0  1  0  0  0  0  0  0
    2.5690   54.1150   21.9960 C   0  0  0  0  0  0  0  0  0  0  0  0
    0.9960   52.7540   23.3980 C   0  0  0  0  0  3  0  0  0  0  0  0
   -0.0040   52.5390   22.5980 N   0  0  0  0  0  0  0  0  0  0  0  0
   -0.1750   53.1520   21.8470 H   0  0  0  0  0  0  0  0  0  0  0  0
    3.2690   56.1600   19.4750 C   0  0  0  0  0  1  0  0  0  0  0  0
    4.1230   55.3900   20.4720 C   0  0  0  0  0  2  0  0  0  0  0  0
    2.4070   53.2390   20.9460 O   0  0  0  0  0  0  0  0  0  0  0  0
    3.0100   52.5320   20.8280 H   0  0  0  0  0  0  0  0  0  0  0  0
    5.5390   62.2090   21.6610 C   0  0  0  0  0  3  0  0  0  0  0  0
    4.5450   59.6040   21.9530 C   0  0  0  0  0  0  0  0  0  0  0  0
    4.1550   60.6290   22.8310 C   0  0  0  0  0  0  0  0  0  0  0  0
    5.4380   59.8990   20.9220 C   0  0  0  0  0  3  0  0  0  0  0  0
    4.6490   61.9250   22.6950 C   0  0  0  0  0  3  0  0  0  0  0  0
    5.9150   61.2070   20.7630 C   0  0  0  0  0  0  0  0  0  0  0  0
    3.2750   60.3270   23.8390 O   0  0  0  0  0  0  0  0  0  0  0  0
    3.5060   60.5010   24.7310 H   0  0  0  0  0  0  0  0  0  0  0  0
    6.8160   61.5720   19.7890 O   0  0  0  0  0  0  0  0  0  0  0  0
    7.7500   60.3600   19.1300 S   0  0  0  0  0  0  0  0  0  0  0  0
    7.8570   60.9130   17.5570 N   0  0  0  0  0  0  0  0  0  0  0  0
    7.9500   58.5260   16.7370 C   0  0  0  0  0  1  0  0  0  0  0  0
    7.6080   59.9840   16.4430 C   0  0  0  0  0  2  0  0  0  0  0  0
    8.7770   61.9760   17.1670 C   0  0  0  0  0  2  0  0  0  0  0  0
    9.0750   61.8460   15.7530 N   0  0  0  0  0  4  0  0  0  0  0  0
    9.2060   62.7720   15.3470 H   0  0  0  0  0  0  0  0  0  0  0  0
    8.3030   61.3740   15.2830 H   0  0  0  0  0  0  0  0  0  0  0  0
    9.9300   61.2990   15.6350 H   0  0  0  0  0  0  0  0  0  0  0  0
  1  3  1  0  0  0  0
  3  2  2  0  0  0  0
  4  1  1  0  0  0  0
  5  7  1  0  0  0  0
  6 11  2  0  0  0  0
  6  8  1  0  0  0  0
  7 10  1  0  0  0  0
  8  3  1  0  0  0  0
  8  5  2  0  0  0  0
  9 12  1  0  0  0  0
  9  7  2  0  0  0  0
 11  9  1  0  0  0  0
 13 12  2  0  0  0  0
 14 13  1  0  0  0  0
 15 16  1  0  0  0  0
 16  6  1  0  0  0  0
 17 11  1  0  0  0  0
 18 17  1  0  0  0  0
 19 23  1  0  0  0  0
 20  1  1  0  0  0  0
 20 21  1  0  0  0  0
 21 25  1  0  0  0  0
 22 20  2  0  0  0  0
 23 21  2  0  0  0  0
 24 22  1  0  0  0  0
 24 19  2  0  0  0  0
 25 26  1  0  0  0  0
 27 24  1  0  0  0  0
 28 27  1  0  0  0  0
 29 28  1  0  0  0  0
 31 30  1  0  0  0  0
 31 29  1  0  0  0  0
 32 29  1  0  0  0  0
 33 32  1  0  0  0  0
 34 33  1  0  0  0  0
 35 33  1  0  0  0  0
 36 33  1  0  0  0  0
M  END
>  <MODEL>
1

>  <REMARK>
 VINA RESULT:      -7.2      0.000      0.000
  Name = 
  15 active torsions:
  status: ('A' for Active; 'I' for Inactive)
    1  A    between atoms: N_1  and  C_7
    2  A    between atoms: S_2  and  N_9
    3  A    between atoms: S_2  and  O_23
    4  A    between atoms: C_5  and  C_24
    5  A    between atoms: C_6  and  C_18
    6  A    between atoms: C_8  and  O_20
    7  A    between atoms: N_9  and  C_16
    8  A    between atoms: N_9  and  C_18
    9  A    between atoms: C_10  and  C_27
   10  A    between atoms: C_11  and  C_22
   11  A    between atoms: C_14  and  C_26
   12  A    between atoms: C_15  and  C_24
   13  A    between atoms: C_16  and  N_19
   14  A    between atoms: O_23  and  C_25
   15  A    between atoms: C_28  and  O_29
                            x       y       z     vdW  Elec       q    Type
                         _______ _______ _______ _____ _____    ______ ____

>  <TORSDO>
F 12

$$$$

     RDKit          2D

  1  0  0  0  0  0  0  0  0  0999 V2000
    0.0000    0.0000    0.0000 C   0  0  0  0  0  0  0  0  0  0  0  0
M  END
$$$$
=
 OpenBabel12172412333D

 34 34  0  0  1  0  0  0  0  0999 V2000
    5.7370   61.7330   21.0400 C   0  0  0  0  0  0  0  0  0  0  0  0
    4.5590   61.0420   20.9900 N   0  0  0  0  0  0  0  0  0  0  0  0
    6.1880   62.2160   22.1630 N   0  0  0  0  0  4  0  0  0  0  0  0
    4.0810   61.0130   20.1290 H   0  0  0  0  0  0  0  0  0  0  0  0
    5.6950   62.0580   23.0000 H   0  0  0  0  0  0  0  0  0  0  0  0
    7.0210   62.7390   22.1740 H   0  0  0  0  0  0  0  0  0  0  0  0
    3.9670   60.3570   22.1030 C   0  0  1  0  0  3  0  0  0  0  0  0
    5.0950   58.7980   23.4110 C   0  0  0  0  0  2  0  0  0  0  0  0
    3.4930   58.9700   21.7310 C   0  0  0  0  0  2  0  0  0  0  0  0
    4.9680   60.1990   23.1150 O   0  0  0  0  0  0  0  0  0  0  0  0
    3.8140   58.1310   22.9350 C   0  0  1  0  0  3  0  0  0  0  0  0
    3.9720   56.6320   22.6680 C   0  0  0  0  0  2  0  0  0  0  0  0
    4.4620   56.2460   21.2550 C   0  0  0  0  0  2  0  0  0  0  0  0
    3.4910   55.6130   20.3530 N   0  0  0  0  0  0  0  0  0  0  0  0
    3.1740   56.2400   18.8240 S   0  0  0  0  0  0  0  0  0  0  0  0
    2.9360   57.5760   18.9120 H   0  0  0  0  0  0  0  0  0  0  0  0
    1.9630   55.3870   18.2050 O   0  0  0  0  0  0  0  0  0  0  0  0
    1.1310   55.8700   18.3280 H   0  0  0  0  0  0  0  0  0  0  0  0
    4.4100   55.8660   17.8620 O   0  0  0  0  0  0  0  0  0  0  0  0
    5.2170   55.7770   18.3940 H   0  0  0  0  0  0  0  0  0  0  0  0
    1.7850   54.1220   21.3980 C   0  0  0  0  0  1  0  0  0  0  0  0
    3.1540   54.2430   20.7380 C   0  0  0  0  0  2  0  0  0  0  0  0
    7.4850   61.2050   19.3030 C   0  0  0  0  0  0  0  0  0  0  0  0
    6.5160   61.9990   19.7990 C   0  0  0  0  0  3  0  0  0  0  0  0
    8.1610   61.6050   18.0730 C   0  0  0  0  0  0  0  0  0  0  0  0
    8.4770   60.7880   17.0490 C   0  0  0  0  0  0  0  0  0  0  0  0
    7.1950   58.9290   15.9280 C   0  0  0  0  0  1  0  0  0  0  0  0
    8.2200   59.3000   16.9930 C   0  0  0  0  0  2  0  0  0  0  0  0
    8.4410   62.9570   17.9910 O   0  0  0  0  0  0  0  0  0  0  0  0
    8.8620   63.3030   17.2290 H   0  0  0  0  0  0  0  0  0  0  0  0
    9.0720   61.3320   15.9150 O   0  0  0  0  0  0  0  0  0  0  0  0
    9.5640   60.7850   15.3360 H   0  0  0  0  0  0  0  0  0  0  0  0
    8.0350   59.9580   19.9650 C   0  0  0  0  0  2  0  0  0  0  0  0
    7.0010   58.8470   20.1020 C   0  0  0  0  0  1  0  0  0  0  0  0
  1  3  2  0  0  0  0
  2  1  1  0  0  0  0
  3  6  1  0  0  0  0
  3  5  1  0  0  0  0
  4  2  1  0  0  0  0
  7  2  1  6  0  0  0
  7 10  1  0  0  0  0
  9  7  1  0  0  0  0
  9 11  1  0  0  0  0
 10  8  1  0  0  0  0
 11 12  1  6  0  0  0
 11  8  1  0  0  0  0
 13 12  1  0  0  0  0
 14 22  1  0  0  0  0
 14 13  1  0  0  0  0
 15 16  1  0  0  0  0
 15 14  1  0  0  0  0
 17 18  1  0  0  0  0
 17 15  1  0  0  0  0
 19 20  1  0  0  0  0
 19 15  1  0  0  0  0
 22 21  1  0  0  0  0
 23 24  2  0  0  0  0
 23 33  1  0  0  0  0
 24  1  1  0  0  0  0
 25 23  1  0  0  0  0
 26 25  2  0  0  0  0
 27 28  1  0  0  0  0
 28 26  1  0  0  0  0
 29 25  1  0  0  0  0
 30 29  1  0  0  0  0
 31 26  1  0  0  0  0
 32 31  1  0  0  0  0
 33 34  1  0  0  0  0
M  END
>  <MODEL>
1

>  <REMARK>
 VINA RESULT:      -7.5      0.000      0.000
  Name = 
  17 active torsions:
  status: ('A' for Active; 'I' for Inactive)
    1  A    between atoms: C_1  and  C_24
    2  A    between atoms: C_2  and  O_13
    3  A    between atoms: C_2  and  C_20
    4  A    between atoms: C_3  and  N_19
    5  A    between atoms: C_4  and  N_22
    6  A    between atoms: C_4  and  C_26
    7  A    between atoms: S_6  and  O_16
    8  A    between atoms: S_6  and  N_22
    9  A    between atoms: S_6  and  O_23
   10  A    between atoms: C_8  and  C_14
   11  A    between atoms: C_9  and  C_14
   12  A    between atoms: C_9  and  O_18
   13  A    between atoms: C_11  and  C_20
   14  A    between atoms: C_11  and  C_25
   15  A    between atoms: C_12  and  C_15
   16  A    between atoms: C_15  and  N_22
   17  A    between atoms: C_17  and  C_26
                            x       y       z     vdW  Elec       q    Type
                         _______ _______ _______ _____ _____    ______ ____

>  <TORSDO>
F 14

$$$$
=
 OpenBabel12172412343D

 29 30  0  0  1  0  0  0  0  0999 V2000
    3.6490   59.3770   23.3130 O   0  0  0  0  0  0  0  0  0  0  0  0
    4.4120   58.8540   22.4930 C   0  0  0  0  0  0  0  0  0  0  0  0
    4.8020   61.9200   21.0650 C   0  0  1  0  0  3  0  0  0  0  0  0
    4.7160   59.5200   21.1320 C   0  0  1  0  0  3  0  0  0  0  0  0
    3.9010   60.7600   20.9990 N   0  0  0  0  0  4  0  0  0  0  0  0
    4.9520   62.4330   22.4980 C   0  0  0  0  0  1  0  0  0  0  0  0
    6.0760   61.3800   20.4070 C   0  0  2  0  0  3  0  0  0  0  0  0
    6.1820   59.9620   20.9930 C   0  0  2  0  0  3  0  0  0  0  0  0
    3.4100   60.7550   20.1060 H   0  0  0  0  0  0  0  0  0  0  0  0
    3.2130   60.8090   21.7520 H   0  0  0  0  0  0  0  0  0  0  0  0
    7.6010   59.5060   18.8610 C   0  0  0  0  0  1  0  0  0  0  0  0
    7.0820   58.9990   20.1990 C   0  0  0  0  0  2  0  0  0  0  0  0
    7.3440   62.2190   20.5910 C   0  0  0  0  0  2  0  0  0  0  0  0
    7.3860   63.4350   19.6720 C   0  0  0  0  0  2  0  0  0  0  0  0
    8.0730   63.1000   18.4730 O   0  0  0  0  0  0  0  0  0  0  0  0
    9.0270   63.0660   18.6450 H   0  0  0  0  0  0  0  0  0  0  0  0
    5.0860   57.5290   22.8070 C   0  0  0  0  0  2  0  0  0  0  0  0
    4.2840   55.4860   21.5490 C   0  0  0  0  0  3  0  0  0  0  0  0
    2.5080   54.0940   22.4120 C   0  0  0  0  0  3  0  0  0  0  0  0
    3.1910   56.0700   23.6230 C   0  0  0  0  0  3  0  0  0  0  0  0
    2.3610   54.9570   23.4980 C   0  0  0  0  0  3  0  0  0  0  0  0
    3.4810   54.3460   21.4440 C   0  0  0  0  0  0  0  0  0  0  0  0
    4.1750   56.3350   22.6610 C   0  0  0  0  0  0  0  0  0  0  0  0
    3.5490   53.4400   20.4120 O   0  0  0  0  0  0  0  0  0  0  0  0
    2.3530   52.2860   20.3090 S   0  0  0  0  0  0  0  0  0  0  0  0
    0.8770   51.7290   18.1250 C   0  0  0  0  0  1  0  0  0  0  0  0
    1.7510   52.6860   18.8050 N   0  0  0  0  0  0  0  0  0  0  0  0
    0.2950   54.6350   19.4780 C   0  0  0  0  0  1  0  0  0  0  0  0
    1.3470   54.0740   18.5270 C   0  0  0  0  0  2  0  0  0  0  0  0
  2 17  1  0  0  0  0
  2  1  2  0  0  0  0
  3  6  1  1  0  0  0
  4  2  1  1  0  0  0
  5  3  1  0  0  0  0
  5  4  1  0  0  0  0
  5 10  1  0  0  0  0
  7 13  1  1  0  0  0
  7  8  1  0  0  0  0
  7  3  1  0  0  0  0
  8 12  1  6  0  0  0
  8  4  1  0  0  0  0
  9  5  1  0  0  0  0
 11 12  1  0  0  0  0
 14 13  1  0  0  0  0
 15 16  1  0  0  0  0
 15 14  1  0  0  0  0
 18 23  1  0  0  0  0
 19 21  2  0  0  0  0
 21 20  1  0  0  0  0
 22 18  2  0  0  0  0
 22 19  1  0  0  0  0
 23 17  1  0  0  0  0
 23 20  2  0  0  0  0
 24 22  1  0  0  0  0
 25 24  1  0  0  0  0
 26 27  1  0  0  0  0
 27 25  1  0  0  0  0
 29 27  1  0  0  0  0
 29 28  1  0  0  0  0
M  END
>  <MODEL>
1

>  <REMARK>
 VINA RESULT:      -7.1      0.000      0.000
  Name = 
  15 active torsions:
  status: ('A' for Active; 'I' for Inactive)
    1  A    between atoms: C_2  and  C_21
    2  A    between atoms: O_4  and  C_14
    3  A    between atoms: C_5  and  C_14
    4  A    between atoms: C_5  and  C_22
    5  A    between atoms: S_6  and  N_18
    6  A    between atoms: S_6  and  O_19
    7  A    between atoms: C_8  and  C_13
    8  A    between atoms: C_10  and  C_15
    9  A    between atoms: C_11  and  C_12
   10  A    between atoms: C_12  and  C_26
   11  A    between atoms: C_13  and  C_25
   12  A    between atoms: C_15  and  N_18
   13  A    between atoms: C_16  and  N_18
   14  A    between atoms: O_19  and  C_23
   15  A    between atoms: C_24  and  C_26
                            x       y       z     vdW  Elec       q    Type
                         _______ _______ _______ _____ _____    ______ ____

>  <TORSDO>
F 11

$$$$
=
 OpenBabel12172412343D

 39 41  0  0  1  0  0  0  0  0999 V2000
    3.0910   56.5980   24.8470 O   0  0  0  0  0  0  0  0  0  0  0  0
    5.0720   57.6490   24.2230 N   0  0  0  0  0  0  0  0  0  0  0  0
    4.0130   56.7770   24.0580 C   0  0  0  0  0  0  0  0  0  0  0  0
    5.7530   57.6040   23.5130 H   0  0  0  0  0  0  0  0  0  0  0  0
    2.8630   55.3030   22.3840 N   0  0  0  0  0  4  0  0  0  0  0  0
    4.5100   56.6810   21.4510 C   0  0  2  0  0  3  0  0  0  0  0  0
    2.4770   54.9450   18.7850 C   0  0  2  0  0  3  0  0  0  0  0  0
    3.5490   53.2350   21.2290 C   0  0  0  0  0  1  0  0  0  0  0  0
    4.1760   55.5790   20.4020 C   0  0  1  0  0  3  0  0  0  0  0  0
    4.1380   55.9500   22.7560 C   0  0  1  0  0  3  0  0  0  0  0  0
    1.8610   54.7870   20.1670 C   0  0  0  0  0  2  0  0  0  0  0  0
    3.0910   54.6940   21.0780 C   0  0  2  0  0  0  0  0  0  0  0  0
    3.5860   55.9750   19.0420 C   0  0  1  0  0  3  0  0  0  0  0  0
    2.1170   55.9960   22.3270 H   0  0  0  0  0  0  0  0  0  0  0  0
    2.5800   54.6090   23.0760 H   0  0  0  0  0  0  0  0  0  0  0  0
    4.5650   55.9410   18.0070 O   0  0  0  0  0  0  0  0  0  0  0  0
    5.4010   55.6030   18.3630 H   0  0  0  0  0  0  0  0  0  0  0  0
    3.7750   58.0270   21.2760 C   0  0  0  0  0  2  0  0  0  0  0  0
    4.7300   59.1710   20.9490 C   0  0  0  0  0  1  0  0  0  0  0  0
    1.5300   55.4090   17.8380 O   0  0  0  0  0  0  0  0  0  0  0  0
    1.4600   56.3750   17.8980 H   0  0  0  0  0  0  0  0  0  0  0  0
    6.2020   58.0510   26.2450 C   0  0  0  0  0  0  0  0  0  0  0  0
    5.3270   60.6550   26.4970 C   0  0  0  0  0  0  0  0  0  0  0  0
    6.5940   58.8030   27.3520 C   0  0  0  0  0  3  0  0  0  0  0  0
    4.8740   59.9230   25.3700 C   0  0  0  0  0  0  0  0  0  0  0  0
    5.3440   58.5990   25.2430 C   0  0  0  0  0  0  0  0  0  0  0  0
    6.1800   60.1200   27.4600 C   0  0  0  0  0  3  0  0  0  0  0  0
    6.4810   56.6470   26.2220 N   0  0  0  0  0  0  0  0  0  0  0  0
    6.8030   56.2220   25.3950 H   0  0  0  0  0  0  0  0  0  0  0  0
    6.3490   56.1070   27.0350 H   0  0  0  0  0  0  0  0  0  0  0  0
    4.9020   61.9370   26.7490 O   0  0  0  0  0  0  0  0  0  0  0  0
    5.2830   62.4280   27.4490 H   0  0  0  0  0  0  0  0  0  0  0  0
    3.8990   60.5860   24.4010 C   0  0  2  0  0  3  0  0  0  0  0  0
    4.6580   61.5850   23.5150 C   0  0  0  0  0  1  0  0  0  0  0  0
    2.8040   61.2610   25.1630 N   0  0  0  0  0  4  0  0  0  0  0  0
    2.4020   61.9940   24.5790 H   0  0  0  0  0  0  0  0  0  0  0  0
    3.2080   61.6440   26.0170 H   0  0  0  0  0  0  0  0  0  0  0  0
    1.4140   59.4140   24.3780 C   0  0  0  0  0  1  0  0  0  0  0  0
    1.7390   60.3290   25.5510 C   0  0  0  0  0  2  0  0  0  0  0  0
  2 26  1  0  0  0  0
  3  2  1  0  0  0  0
  3  1  2  0  0  0  0
  4  2  1  0  0  0  0
  5 10  1  0  0  0  0
  5 15  1  0  0  0  0
  6 18  1  6  0  0  0
  6 10  1  0  0  0  0
  7 20  1  6  0  0  0
  7 13  1  0  0  0  0
  7 11  1  0  0  0  0
  9 12  1  0  0  0  0
  9  6  1  0  0  0  0
 10  3  1  0  0  0  0
 11 12  1  0  0  0  0
 12  8  1  0  0  0  0
 12  5  1  0  0  0  0
 13  9  1  0  0  0  0
 14  5  1  0  0  0  0
 16 17  1  0  0  0  0
 16 13  1  0  0  0  0
 19 18  1  0  0  0  0
 20 21  1  0  0  0  0
 22 24  1  0  0  0  0
 23 31  1  0  0  0  0
 23 27  1  0  0  0  0
 24 27  2  0  0  0  0
 25 23  2  0  0  0  0
 26 25  1  0  0  0  0
 26 22  2  0  0  0  0
 28 22  1  0  0  0  0
 28 30  1  0  0  0  0
 29 28  1  0  0  0  0
 31 32  1  0  0  0  0
 33 35  1  0  0  0  0
 33 25  1  0  0  0  0
 34 33  1  0  0  0  0
 35 39  1  0  0  0  0
 35 37  1  0  0  0  0
 36 35  1  0  0  0  0
 38 39  1  0  0  0  0
M  END
>  <MODEL>
1

>  <REMARK>
 VINA RESULT:      -7.2      0.000      0.000
  Name = 
  14 active torsions:
  status: ('A' for Active; 'I' for Inactive)
    1  A    between atoms: O_1  and  C_29
    2  A    between atoms: C_2  and  N_21
    3  A    between atoms: C_5  and  C_20
    4  A    between atoms: C_6  and  C_15
    5  A    between atoms: C_7  and  O_11
    6  A    between atoms: N_8  and  C_16
    7  A    between atoms: N_8  and  C_20
    8  A    between atoms: C_10  and  O_26
    9  A    between atoms: C_12  and  C_27
   10  A    between atoms: N_13  and  C_23
   11  A    between atoms: C_15  and  C_22
   12  A    between atoms: C_16  and  C_17
   13  A    between atoms: C_16  and  C_19
   14  A    between atoms: C_18  and  C_28
                            x       y       z     vdW  Elec       q    Type
                         _______ _______ _______ _____ _____    ______ ____

>  <TORSDO>
F 10

$$$$
=
 OpenBabel12172412353D

 31 33  0  0  1  0  0  0  0  0999 V2000
    4.8840   57.6200   21.9460 C   0  0  0  0  0  0  0  0  0  0  0  0
    2.5910   54.3390   20.8120 C   0  0  0  0  0  0  0  0  0  0  0  0
    4.1600   57.2630   24.2210 C   0  0  0  0  0  3  0  0  0  0  0  0
    3.2870   54.9550   19.8430 N   0  0  0  0  0  0  0  0  0  0  0  0
    3.3890   56.1660   23.8070 C   0  0  0  0  0  0  0  0  0  0  0  0
    2.6130   54.7130   22.1080 N   0  0  0  0  0  2  0  0  0  0  0  0
    4.9040   57.9840   23.2960 C   0  0  0  0  0  3  0  0  0  0  0  0
    4.0230   56.0170   20.2250 C   0  0  0  0  0  2  0  0  0  0  0  0
    2.5900   55.4010   24.8310 C   0  0  0  0  0  1  0  0  0  0  0  0
    3.3580   55.7730   22.4630 C   0  0  0  0  0  0  0  0  0  0  0  0
    4.1110   56.5010   21.5300 C   0  0  0  0  0  0  0  0  0  0  0  0
    0.7500   53.4130   19.3380 N   0  0  0  0  0  4  0  0  0  0  0  0
    2.5360   51.9120   20.0110 C   0  0  1  0  0  3  0  0  0  0  0  0
    1.5450   51.1280   19.1330 C   0  0  2  0  0  3  0  0  0  0  0  0
   -0.4330   51.9850   17.6680 C   0  0  0  0  0  1  0  0  0  0  0  0
    1.7210   53.1400   20.4490 C   0  0  1  0  0  3  0  0  0  0  0  0
    0.8800   52.2990   18.3760 C   0  0  1  0  0  3  0  0  0  0  0  0
    0.9740   54.2980   18.8840 H   0  0  0  0  0  0  0  0  0  0  0  0
   -0.2040   53.4790   19.6940 H   0  0  0  0  0  0  0  0  0  0  0  0
    0.5940   50.1950   19.8620 C   0  0  0  0  0  0  0  0  0  0  0  0
    0.5580   48.8750   19.6380 C   0  0  0  0  0  2  0  0  0  0  0  0
   -0.2580   50.7830   20.7740 O   0  0  0  0  0  0  0  0  0  0  0  0
   -0.2790   50.4780   21.6600 H   0  0  0  0  0  0  0  0  0  0  0  0
    4.4300   50.2240   20.6620 C   0  0  0  0  0  1  0  0  0  0  0  0
    3.2960   51.1390   21.1010 C   0  0  0  0  0  2  0  0  0  0  0  0
    5.8720   58.6260   20.8350 S   0  0  0  0  0  0  0  0  0  0  0  0
    5.7860   60.0700   21.6640 O   0  0  0  0  0  0  0  0  0  0  0  0
    7.0430   61.5830   20.2940 C   0  0  0  0  0  1  0  0  0  0  0  0
    5.6640   61.2460   20.8560 C   0  0  2  0  0  3  0  0  0  0  0  0
    5.1590   62.3930   21.7420 C   0  0  0  0  0  2  0  0  0  0  0  0
    4.6760   61.9050   23.1020 C   0  0  0  0  0  1  0  0  0  0  0  0
  1  7  1  0  0  0  0
  2  6  1  0  0  0  0
  4  8  1  0  0  0  0
  4  2  2  0  0  0  0
  5  3  1  0  0  0  0
  5  9  1  0  0  0  0
  6 10  1  0  0  0  0
  7  3  2  0  0  0  0
  8 11  1  0  0  0  0
 10  5  2  0  0  0  0
 11  1  2  0  0  0  0
 11 10  1  0  0  0  0
 12 19  1  0  0  0  0
 12 16  1  0  0  0  0
 13 16  1  0  0  0  0
 13 25  1  1  0  0  0
 14 20  1  1  0  0  0
 14 13  1  0  0  0  0
 16  2  1  6  0  0  0
 17 15  1  1  0  0  0
 17 14  1  0  0  0  0
 17 12  1  0  0  0  0
 18 12  1  0  0  0  0
 20 22  1  0  0  0  0
 21 20  2  0  0  0  0
 22 23  1  0  0  0  0
 24 25  1  0  0  0  0
 26 27  1  0  0  0  0
 26  1  1  0  0  0  0
 29 28  1  1  0  0  0
 29 27  1  0  0  0  0
 29 30  1  0  0  0  0
 30 31  1  0  0  0  0
M  END
>  <MODEL>
1

>  <REMARK>
 VINA RESULT:      -7.0      0.000      0.000
  Name = 
  13 active torsions:
  status: ('A' for Active; 'I' for Inactive)
    1  A    between atoms: C_1  and  S_5
    2  A    between atoms: C_3  and  C_18
    3  A    between atoms: S_5  and  O_20
    4  A    between atoms: C_7  and  C_15
    5  A    between atoms: C_7  and  O_21
    6  A    between atoms: C_8  and  C_12
    7  A    between atoms: C_9  and  C_12
    8  A    between atoms: C_10  and  C_26
    9  A    between atoms: C_11  and  C_19
   10  A    between atoms: C_11  and  C_23
   11  A    between atoms: C_16  and  C_23
   12  A    between atoms: C_17  and  C_24
   13  A    between atoms: O_20  and  C_23
                            x       y       z     vdW  Elec       q    Type
                         _______ _______ _______ _____ _____    ______ ____

>  <TORSDO>
F 8

$$$$
=
 OpenBabel12172412363D

 31 32  0  0  1  0  0  0  0  0999 V2000
    5.3300   59.8530   22.0000 N   0  0  0  0  0  0  0  0  0  0  0  0
    4.9660   58.5210   21.9620 C   0  0  0  0  0  0  0  0  0  0  0  0
    5.3340   57.6780   21.1520 O   0  0  0  0  0  0  0  0  0  0  0  0
    4.9740   60.3720   22.7580 H   0  0  0  0  0  0  0  0  0  0  0  0
    2.8310   59.4350   24.7450 C   0  0  1  0  0  3  0  0  0  0  0  0
    4.7990   58.1200   24.4740 C   0  0  1  0  0  3  0  0  0  0  0  0
    2.9660   59.1580   23.3010 N   0  0  0  0  0  4  0  0  0  0  0  0
    4.0460   58.1370   23.1380 C   0  0  1  0  0  3  0  0  0  0  0  0
    1.3740   59.5330   25.1820 C   0  0  0  0  0  1  0  0  0  0  0  0
    3.6900   58.3980   25.4960 C   0  0  2  0  0  0  0  0  0  0  0  0
    3.2170   60.0130   22.8050 H   0  0  0  0  0  0  0  0  0  0  0  0
    2.0860   58.8140   22.9180 H   0  0  0  0  0  0  0  0  0  0  0  0
    5.6150   56.8320   24.6740 C   0  0  0  0  0  2  0  0  0  0  0  0
    6.6500   56.9310   25.7850 C   0  0  0  0  0  1  0  0  0  0  0  0
    2.8870   57.1470   25.8610 C   0  0  0  0  0  3  0  0  0  0  0  0
    2.8800   56.6820   26.9980 O   0  0  0  0  0  0  0  0  0  0  0  0
    4.2460   58.9890   26.6680 O   0  0  0  0  0  0  0  0  0  0  0  0
    5.1480   59.2930   26.4810 H   0  0  0  0  0  0  0  0  0  0  0  0
    6.8970   62.7530   20.3170 C   0  0  0  0  0  3  0  0  0  0  0  0
    6.1440   60.5670   21.1000 C   0  0  0  0  0  0  0  0  0  0  0  0
    7.6130   60.7500   19.1850 C   0  0  0  0  0  0  0  0  0  0  0  0
    6.1740   61.9670   21.2080 C   0  0  0  0  0  0  0  0  0  0  0  0
    6.9040   59.9630   20.0990 C   0  0  0  0  0  3  0  0  0  0  0  0
    7.6310   62.1380   19.3060 C   0  0  0  0  0  3  0  0  0  0  0  0
    5.5260   62.6150   22.2260 O   0  0  0  0  0  0  0  0  0  0  0  0
    5.3920   62.1830   23.0460 H   0  0  0  0  0  0  0  0  0  0  0  0
    8.3970   60.1620   18.2320 O   0  0  0  0  0  0  0  0  0  0  0  0
    8.2750   58.3910   16.4960 C   0  0  0  0  0  1  0  0  0  0  0  0
    7.7180   59.7090   17.0390 C   0  0  2  0  0  3  0  0  0  0  0  0
    7.5930   60.8130   15.9760 C   0  0  0  0  0  2  0  0  0  0  0  0
    8.7930   61.7490   15.9310 C   0  0  0  0  0  1  0  0  0  0  0  0
  1  4  1  0  0  0  0
  2  1  1  0  0  0  0
  3  2  2  0  0  0  0
  5  9  1  1  0  0  0
  5 10  1  0  0  0  0
  6 13  1  1  0  0  0
  6 10  1  0  0  0  0
  7  5  1  0  0  0  0
  8  2  1  6  0  0  0
  8  7  1  0  0  0  0
  8  6  1  0  0  0  0
 10 15  1  1  0  0  0
 10 17  1  0  0  0  0
 11  7  1  0  0  0  0
 12  7  1  0  0  0  0
 13 14  1  0  0  0  0
 15 16  2  0  0  0  0
 18 17  1  0  0  0  0
 19 22  1  0  0  0  0
 20 22  2  0  0  0  0
 20  1  1  0  0  0  0
 21 24  1  0  0  0  0
 21 23  2  0  0  0  0
 22 25  1  0  0  0  0
 23 20  1  0  0  0  0
 24 19  2  0  0  0  0
 25 26  1  0  0  0  0
 27 21  1  0  0  0  0
 29 28  1  6  0  0  0
 29 27  1  0  0  0  0
 30 29  1  0  0  0  0
 31 30  1  0  0  0  0
M  END
>  <MODEL>
1

>  <REMARK>
 VINA RESULT:      -6.7      0.000      0.000
  Name = 
  13 active torsions:
  status: ('A' for Active; 'I' for Inactive)
    1  A    between atoms: N_2  and  C_9
    2  A    between atoms: C_3  and  C_20
    3  A    between atoms: C_4  and  C_5
    4  A    between atoms: C_5  and  C_15
    5  A    between atoms: C_7  and  C_16
    6  A    between atoms: C_8  and  C_16
    7  A    between atoms: C_8  and  C_26
    8  A    between atoms: C_10  and  O_18
    9  A    between atoms: C_11  and  C_24
   10  A    between atoms: O_12  and  C_24
   11  A    between atoms: O_13  and  C_19
   12  A    between atoms: C_14  and  C_17
   13  A    between atoms: C_16  and  O_18
                            x       y       z     vdW  Elec       q    Type
                         _______ _______ _______ _____ _____    ______ ____

>  <TORSDO>
F 9

$$$$
=
 OpenBabel12172412363D

 35 36  0  0  1  0  0  0  0  0999 V2000
    4.5070   56.9240   23.6590 C   0  0  1  0  0  3  0  0  0  0  0  0
    3.0500   58.9940   24.1600 N   0  0  0  0  0  4  0  0  0  0  0  0
    2.1910   60.5490   25.7990 C   0  0  0  0  0  1  0  0  0  0  0  0
    5.2700   59.1190   25.0390 C   0  0  1  0  0  3  0  0  0  0  0  0
    4.4080   58.4610   23.9280 C   0  0  1  0  0  3  0  0  0  0  0  0
    3.1800   60.3760   24.6520 C   0  0  1  0  0  3  0  0  0  0  0  0
    4.6850   60.5620   25.0020 C   0  0  2  0  0  0  0  0  0  0  0  0
    2.5680   58.4240   24.8540 H   0  0  0  0  0  0  0  0  0  0  0  0
    2.5100   58.9760   23.2940 H   0  0  0  0  0  0  0  0  0  0  0  0
    5.3420   61.2360   23.8810 O   0  0  0  0  0  0  0  0  0  0  0  0
    6.2620   60.9340   23.8180 H   0  0  0  0  0  0  0  0  0  0  0  0
    6.5560   58.1110   27.0430 C   0  0  0  0  0  1  0  0  0  0  0  0
    5.2040   58.3980   26.4000 C   0  0  0  0  0  2  0  0  0  0  0  0
    4.9570   61.4920   26.1860 C   0  0  0  0  0  2  0  0  0  0  0  0
    4.7860   62.8530   25.7860 O   0  0  0  0  0  0  0  0  0  0  0  0
    4.9300   62.9290   24.8290 H   0  0  0  0  0  0  0  0  0  0  0  0
    4.6290   56.8300   21.0950 C   0  0  0  0  0  0  0  0  0  0  0  0
    3.1460   55.3220   19.8770 C   0  0  0  0  0  3  0  0  0  0  0  0
    3.1150   55.3360   22.2630 C   0  0  0  0  0  3  0  0  0  0  0  0
    4.1010   56.3400   19.8950 C   0  0  0  0  0  3  0  0  0  0  0  0
    4.1030   56.3490   22.3090 C   0  0  0  0  0  0  0  0  0  0  0  0
    2.6290   54.7850   21.0640 C   0  0  0  0  0  0  0  0  0  0  0  0
    5.5180   57.9140   21.0280 N   0  0  0  0  0  0  0  0  0  0  0  0
    5.1940   58.7990   20.7450 H   0  0  0  0  0  0  0  0  0  0  0  0
    6.4660   57.7890   21.2630 H   0  0  0  0  0  0  0  0  0  0  0  0
    1.5820   53.6470   21.0270 C   0  0  0  0  0  0  0  0  0  0  0  0
    2.4950   52.0590   20.5080 S   0  0  0  0  0  0  0  0  0  0  0  0
    3.9720   52.2890   20.6490 O   0  0  0  0  0  0  0  0  0  0  0  0
    2.1130   51.0280   21.3100 H   0  0  0  0  0  0  0  0  0  0  0  0
    0.5080   52.9630   18.7700 C   0  0  0  0  0  1  0  0  0  0  0  0
    0.4740   53.9110   19.9660 C   0  0  0  0  0  2  0  0  0  0  0  0
    0.9660   53.3280   22.4310 C   0  0  0  0  0  2  0  0  0  0  0  0
    1.5290   52.1150   23.1710 C   0  0  0  0  0  1  0  0  0  0  0  0
    5.8820   56.5420   23.8930 O   0  0  0  0  0  0  0  0  0  0  0  0
    6.0750   56.5980   24.8410 H   0  0  0  0  0  0  0  0  0  0  0  0
  1 34  1  6  0  0  0
  2  6  1  0  0  0  0
  2  8  1  0  0  0  0
  4 13  1  1  0  0  0
  5  1  1  1  0  0  0
  5  2  1  0  0  0  0
  5  4  1  0  0  0  0
  6  7  1  0  0  0  0
  6  3  1  1  0  0  0
  7  4  1  0  0  0  0
  7 14  1  1  0  0  0
  9  2  1  0  0  0  0
 10  7  1  0  0  0  0
 11 10  1  0  0  0  0
 13 12  1  0  0  0  0
 15 14  1  0  0  0  0
 16 15  1  0  0  0  0
 17 21  1  0  0  0  0
 18 20  1  0  0  0  0
 18 22  2  0  0  0  0
 19 21  2  0  0  0  0
 20 17  2  0  0  0  0
 21  1  1  0  0  0  0
 22 19  1  0  0  0  0
 23 17  1  0  0  0  0
 23 25  1  0  0  0  0
 24 23  1  0  0  0  0
 26 22  1  0  0  0  0
 26 32  1  0  0  0  0
 27 28  2  0  0  0  0
 27 26  1  0  0  0  0
 27 29  1  0  0  0  0
 30 31  1  0  0  0  0
 31 26  1  0  0  0  0
 32 33  1  0  0  0  0
 34 35  1  0  0  0  0
M  END
>  <MODEL>
1

>  <REMARK>
 VINA RESULT:      -6.1      0.000      0.000
  Name = 
  16 active torsions:
  status: ('A' for Active; 'I' for Inactive)
    1  A    between atoms: C_1  and  O_14
    2  A    between atoms: C_1  and  C_16
    3  A    between atoms: C_1  and  C_23
    4  A    between atoms: C_2  and  C_18
    5  A    between atoms: C_3  and  N_15
    6  A    between atoms: O_5  and  C_13
    7  A    between atoms: S_6  and  C_27
    8  A    between atoms: C_8  and  C_17
    9  A    between atoms: O_9  and  C_26
   10  A    between atoms: C_11  and  C_22
   11  A    between atoms: C_12  and  C_22
   12  A    between atoms: C_13  and  C_26
   13  A    between atoms: C_18  and  C_27
   14  A    between atoms: C_21  and  C_25
   15  A    between atoms: C_21  and  C_27
   16  A    between atoms: C_24  and  C_27
                            x       y       z     vdW  Elec       q    Type
                         _______ _______ _______ _____ _____    ______ ____

>  <TORSDO>
F 12

$$$$

     RDKit          2D

  1  0  0  0  0  0  0  0  0  0999 V2000
    0.0000    0.0000    0.0000 C   0  0  0  0  0  0  0  0  0  0  0  0
M  END
$$$$
=
 OpenBabel12172412373D

 33 35  0  0  1  0  0  0  0  0999 V2000
    3.9670   56.8260   22.4010 C   0  0  0  0  0  0  0  0  0  0  0  0
    3.8890   56.0940   21.2400 N   0  0  0  0  0  0  0  0  0  0  0  0
    3.0270   56.9110   23.1890 O   0  0  0  0  0  0  0  0  0  0  0  0
    4.6910   56.0020   20.6750 H   0  0  0  0  0  0  0  0  0  0  0  0
    5.1860   61.2670   22.5240 C   0  0  0  0  0  0  0  0  0  0  0  0
    5.4030   59.2600   21.0160 C   0  0  1  0  0  3  0  0  0  0  0  0
    5.3350   57.5190   22.6360 C   0  0  1  0  0  3  0  0  0  0  0  0
    4.7830   59.8160   22.3090 C   0  0  1  0  0  3  0  0  0  0  0  0
    6.5560   60.1070   20.4730 C   0  0  0  0  0  2  0  0  0  0  0  0
    5.4090   61.7270   23.6420 O   0  0  0  0  0  0  0  0  0  0  0  0
    5.1910   62.1190   21.2680 C   0  0  1  0  0  3  0  0  0  0  0  0
    5.5290   63.4200   21.5020 F   0  0  0  0  0  0  0  0  0  0  0  0
    5.9220   57.9200   21.3350 N   0  0  0  0  0  4  0  0  0  0  0  0
    6.1450   61.5550   20.2210 C   0  0  0  0  0  2  0  0  0  0  0  0
    5.2500   58.8460   23.3970 C   0  0  1  0  0  3  0  0  0  0  0  0
    6.9390   57.9480   21.4060 H   0  0  0  0  0  0  0  0  0  0  0  0
    5.6750   57.2530   20.6050 H   0  0  0  0  0  0  0  0  0  0  0  0
    4.3580   58.8500   24.6460 C   0  0  0  0  0  2  0  0  0  0  0  0
    5.1370   58.5570   25.9210 C   0  0  0  0  0  1  0  0  0  0  0  0
    2.7130   55.2350   19.3110 C   0  0  0  0  0  0  0  0  0  0  0  0
    2.4610   54.0930   21.4960 C   0  0  0  0  0  2  0  0  0  0  0  0
    0.6550   53.8840   19.6880 C   0  0  0  0  0  2  0  0  0  0  0  0
    1.1450   53.4220   21.0710 C   0  0  1  0  0  3  0  0  0  0  0  0
    3.4700   55.8930   18.5930 O   0  0  0  0  0  0  0  0  0  0  0  0
    1.8110   54.1620   18.7360 C   0  0  0  0  0  2  0  0  0  0  0  0
    2.6510   55.4500   20.8260 C   0  0  1  0  0  3  0  0  0  0  0  0
    1.3540   52.0080   20.9960 O   0  0  0  0  0  0  0  0  0  0  0  0
    2.8640   51.4880   21.4660 S   0  0  0  0  0  0  0  0  0  0  0  0
    3.3150   50.7970   20.0120 N   0  0  0  0  0  0  0  0  0  0  0  0
    4.3580   49.7530   20.0350 C   0  0  0  0  0  2  0  0  0  0  0  0
    4.7200   49.2520   21.4290 C   0  0  0  0  0  1  0  0  0  0  0  0
    2.2700   50.5640   18.9990 C   0  0  0  0  0  2  0  0  0  0  0  0
    2.2120   49.1400   18.4560 C   0  0  0  0  0  1  0  0  0  0  0  0
  1  3  2  0  0  0  0
  2  1  1  0  0  0  0
  4  2  1  0  0  0  0
  5 10  2  0  0  0  0
  6  9  1  1  0  0  0
  6 13  1  0  0  0  0
  6  8  1  0  0  0  0
  7  1  1  6  0  0  0
  7 15  1  0  0  0  0
  8  5  1  1  0  0  0
  8 15  1  0  0  0  0
 11 12  1  1  0  0  0
 11  5  1  0  0  0  0
 13 16  1  0  0  0  0
 13  7  1  0  0  0  0
 14  9  1  0  0  0  0
 14 11  1  0  0  0  0
 15 18  1  1  0  0  0
 17 13  1  0  0  0  0
 18 19  1  0  0  0  0
 20 26  1  0  0  0  0
 22 23  1  0  0  0  0
 23 27  1  6  0  0  0
 23 21  1  0  0  0  0
 24 20  2  0  0  0  0
 25 20  1  0  0  0  0
 25 22  1  0  0  0  0
 26  2  1  1  0  0  0
 26 21  1  0  0  0  0
 27 28  1  0  0  0  0
 29 30  1  0  0  0  0
 29 28  1  0  0  0  0
 30 31  1  0  0  0  0
 32 29  1  0  0  0  0
 33 32  1  0  0  0  0
M  END
>  <MODEL>
1

>  <REMARK>
 VINA RESULT:      -7.0      0.000      0.000
  Name = 
  11 active torsions:
  status: ('A' for Active; 'I' for Inactive)
    1  A    between atoms: S_3  and  N_22
    2  A    between atoms: S_3  and  O_28
    3  A    between atoms: C_4  and  C_10
    4  A    between atoms: C_8  and  C_14
    5  A    between atoms: C_8  and  C_30
    6  A    between atoms: N_9  and  C_26
    7  A    between atoms: C_11  and  O_28
    8  A    between atoms: C_15  and  C_20
    9  A    between atoms: C_15  and  N_22
   10  A    between atoms: C_18  and  N_22
   11  A    between atoms: C_18  and  C_27
                            x       y       z     vdW  Elec       q    Type
                         _______ _______ _______ _____ _____    ______ ____

>  <TORSDO>
F 8

$$$$
=
 OpenBabel12172412383D

 33 34  0  0  1  0  0  0  0  0999 V2000
    3.9480   58.4940   20.8320 C   0  0  0  0  0  2  0  0  0  0  0  0
    4.1410   56.1450   21.1520 C   0  0  1  0  0  3  0  0  0  0  0  0
    5.0390   56.8030   22.2140 C   0  0  0  0  0  2  0  0  0  0  0  0
    3.9960   57.1950   20.0390 C   0  0  1  0  0  3  0  0  0  0  0  0
    5.0780   58.3040   21.8490 C   0  0  2  0  0  0  0  0  0  0  0  0
    4.6440   54.8500   20.7000 N   0  0  0  0  0  4  0  0  0  0  0  0
    4.6740   54.2020   21.4890 H   0  0  0  0  0  0  0  0  0  0  0  0
    5.5820   54.9630   20.3180 H   0  0  0  0  0  0  0  0  0  0  0  0
    4.0260   54.4780   19.9790 H   0  0  0  0  0  0  0  0  0  0  0  0
    2.8020   57.0200   19.2930 O   0  0  0  0  0  0  0  0  0  0  0  0
    2.1060   56.6760   19.8740 H   0  0  0  0  0  0  0  0  0  0  0  0
    5.0360   59.2320   22.9290 O   0  0  0  0  0  0  0  0  0  0  0  0
    3.7420   59.7300   25.7030 C   0  0  1  0  0  3  0  0  0  0  0  0
    4.5330   58.7540   26.5750 C   0  0  0  0  0  1  0  0  0  0  0  0
    4.5460   60.9600   25.2500 C   0  0  1  0  0  3  0  0  0  0  0  0
    3.2830   59.0460   24.4800 N   0  0  0  0  0  4  0  0  0  0  0  0
    3.9670   61.2040   23.8420 C   0  0  2  0  0  3  0  0  0  0  0  0
    3.7860   59.7720   23.3150 C   0  0  1  0  0  3  0  0  0  0  0  0
    2.2630   59.0300   24.4580 H   0  0  0  0  0  0  0  0  0  0  0  0
    3.6320   58.0880   24.4670 H   0  0  0  0  0  0  0  0  0  0  0  0
    5.6190   62.3370   27.1480 C   0  0  0  0  0  1  0  0  0  0  0  0
    4.4620   62.1980   26.1680 C   0  0  2  0  0  3  0  0  0  0  0  0
    3.2390   62.2360   26.8990 O   0  0  0  0  0  0  0  0  0  0  0  0
    2.5590   61.7420   26.4160 H   0  0  0  0  0  0  0  0  0  0  0  0
    4.8460   62.1200   22.9790 C   0  0  0  0  0  2  0  0  0  0  0  0
    4.1960   62.4680   21.6480 C   0  0  0  0  0  1  0  0  0  0  0  0
    6.2890   58.5180   21.0750 O   0  0  0  0  0  0  0  0  0  0  0  0
    6.2750   59.9070   20.6130 O   0  0  0  0  0  0  0  0  0  0  0  0
    7.4830   60.0770   19.8550 C   0  0  0  0  0  3  0  0  0  0  0  0
    7.4210   61.4110   19.0960 C   0  0  0  0  0  2  0  0  0  0  0  0
    7.4060   62.6410   19.9940 C   0  0  0  0  0  1  0  0  0  0  0  0
    7.8470   59.1560   17.4950 C   0  0  0  0  0  1  0  0  0  0  0  0
    7.6410   58.8370   18.9660 C   0  0  0  0  0  2  0  0  0  0  0  0
  1  5  1  0  0  0  0
  2  6  1  6  0  0  0
  2  3  1  0  0  0  0
  4 10  1  1  0  0  0
  4  1  1  0  0  0  0
  4  2  1  0  0  0  0
  5 27  1  6  0  0  0
  5  3  1  0  0  0  0
  5 12  1  0  0  0  0
  6  7  1  0  0  0  0
  8  6  1  0  0  0  0
  9  6  1  0  0  0  0
 10 11  1  0  0  0  0
 13 14  1  6  0  0  0
 15 13  1  0  0  0  0
 15 22  1  1  0  0  0
 16 13  1  0  0  0  0
 17 25  1  6  0  0  0
 17 15  1  0  0  0  0
 18 12  1  1  0  0  0
 18 17  1  0  0  0  0
 18 16  1  0  0  0  0
 19 16  1  0  0  0  0
 20 16  1  0  0  0  0
 22 23  1  0  0  0  0
 22 21  1  1  0  0  0
 24 23  1  0  0  0  0
 26 25  1  0  0  0  0
 28 27  1  0  0  0  0
 29 28  1  0  0  0  0
 30 29  1  0  0  0  0
 30 31  1  0  0  0  0
 32 33  1  0  0  0  0
 33 29  1  0  0  0  0
M  END
>  <MODEL>
1

>  <REMARK>
 VINA RESULT:      -5.7      0.000      0.000
  Name = 
  17 active torsions:
  status: ('A' for Active; 'I' for Inactive)
    1  A    between atoms: C_2  and  C_4
    2  A    between atoms: C_3  and  N_25
    3  A    between atoms: O_5  and  C_16
    4  A    between atoms: O_5  and  O_22
    5  A    between atoms: C_6  and  C_23
    6  A    between atoms: O_8  and  C_19
    7  A    between atoms: O_9  and  C_23
    8  A    between atoms: O_10  and  C_21
    9  A    between atoms: O_10  and  C_26
   10  A    between atoms: C_11  and  C_16
   11  A    between atoms: C_11  and  C_17
   12  A    between atoms: C_13  and  C_23
   13  A    between atoms: C_14  and  C_24
   14  A    between atoms: C_15  and  C_18
   15  A    between atoms: C_15  and  C_20
   16  A    between atoms: C_16  and  C_24
   17  A    between atoms: C_21  and  O_22
                            x       y       z     vdW  Elec       q    Type
                         _______ _______ _______ _____ _____    ______ ____

>  <TORSDO>
F 12

$$$$

     RDKit          2D

  1  0  0  0  0  0  0  0  0  0999 V2000
    0.0000    0.0000    0.0000 C   0  0  0  0  0  0  0  0  0  0  0  0
M  END
$$$$
=
 OpenBabel12172412383D

 30 32  0  0  1  0  0  0  0  0999 V2000
    5.6790   61.9190   21.2750 C   0  0  0  0  0  0  0  0  0  0  0  0
    6.3660   59.9080   20.4400 C   0  0  1  0  0  3  0  0  0  0  0  0
    5.0540   59.4690   22.3660 C   0  0  1  0  0  3  0  0  0  0  0  0
    6.7670   58.5850   20.8590 N   0  0  0  0  0  4  0  0  0  0  0  0
    7.7100   60.6240   18.4040 C   0  0  0  0  0  1  0  0  0  0  0  0
    4.9690   62.7470   21.8290 O   0  0  0  0  0  0  0  0  0  0  0  0
    6.4890   62.2150   19.9960 C   0  0  2  0  0  3  0  0  0  0  0  0
    5.6530   58.1510   21.7560 C   0  0  2  0  0  3  0  0  0  0  0  0
    5.9780   60.5280   21.7760 C   0  0  2  0  0  3  0  0  0  0  0  0
    7.3270   60.9260   19.8430 C   0  0  1  0  0  3  0  0  0  0  0  0
    7.6510   58.6140   21.3650 H   0  0  0  0  0  0  0  0  0  0  0  0
    6.9170   57.9480   20.0760 H   0  0  0  0  0  0  0  0  0  0  0  0
    4.6760   57.3110   20.9440 C   0  0  0  0  0  3  0  0  0  0  0  0
    4.4150   56.0870   21.2780 N   0  0  0  0  0  0  0  0  0  0  0  0
    3.1010   55.9830   19.2400 C   0  0  0  0  0  3  0  0  0  0  0  0
    1.6770   54.0800   18.8050 C   0  0  0  0  0  3  0  0  0  0  0  0
    3.5040   55.4160   20.4510 C   0  0  0  0  0  0  0  0  0  0  0  0
    2.9690   54.1880   20.8450 C   0  0  0  0  0  3  0  0  0  0  0  0
    2.1950   55.3160   18.4150 C   0  0  0  0  0  3  0  0  0  0  0  0
    2.0530   53.5230   20.0280 C   0  0  0  0  0  0  0  0  0  0  0  0
    1.5990   52.3110   20.4960 O   0  0  0  0  0  0  0  0  0  0  0  0
    2.2950   52.0010   21.7420 O   0  0  0  0  0  0  0  0  0  0  0  0
    2.9310   50.1610   23.2150 C   0  0  0  0  0  1  0  0  0  0  0  0
    2.3340   50.5710   21.8710 C   0  0  2  0  0  3  0  0  0  0  0  0
    3.0280   49.9380   20.6570 C   0  0  0  0  0  2  0  0  0  0  0  0
    4.5200   50.2220   20.5970 C   0  0  0  0  0  1  0  0  0  0  0  0
    3.5520   59.6920   22.1310 C   0  0  0  0  0  2  0  0  0  0  0  0
    2.7420   59.6570   23.4220 C   0  0  0  0  0  1  0  0  0  0  0  0
    7.3160   63.3510   20.0890 O   0  0  0  0  0  0  0  0  0  0  0  0
    6.7750   64.1520   20.0060 H   0  0  0  0  0  0  0  0  0  0  0  0
  1  6  2  0  0  0  0
  2  4  1  1  0  0  0
  2  9  1  0  0  0  0
  3 27  1  6  0  0  0
  4 11  1  0  0  0  0
  4  8  1  0  0  0  0
  7 29  1  1  0  0  0
  7  1  1  0  0  0  0
  8 13  1  6  0  0  0
  8  3  1  0  0  0  0
  9  1  1  6  0  0  0
  9  3  1  0  0  0  0
 10  5  1  6  0  0  0
 10  7  1  0  0  0  0
 10  2  1  0  0  0  0
 12  4  1  0  0  0  0
 13 14  2  0  0  0  0
 15 17  1  0  0  0  0
 16 20  2  0  0  0  0
 17 18  2  0  0  0  0
 17 14  1  0  0  0  0
 19 16  1  0  0  0  0
 19 15  2  0  0  0  0
 20 21  1  0  0  0  0
 20 18  1  0  0  0  0
 21 22  1  0  0  0  0
 22 24  1  0  0  0  0
 24 23  1  1  0  0  0
 25 24  1  0  0  0  0
 26 25  1  0  0  0  0
 27 28  1  0  0  0  0
 30 29  1  0  0  0  0
M  END
>  <MODEL>
1

>  <REMARK>
 VINA RESULT:      -7.1      0.000      0.000
  Name = 
  12 active torsions:
  status: ('A' for Active; 'I' for Inactive)
    1  A    between atoms: C_3  and  C_8
    2  A    between atoms: C_4  and  C_21
    3  A    between atoms: C_5  and  C_15
    4  A    between atoms: C_8  and  C_25
    5  A    between atoms: C_10  and  N_26
    6  A    between atoms: O_11  and  C_20
    7  A    between atoms: C_12  and  C_15
    8  A    between atoms: C_12  and  C_19
    9  A    between atoms: C_13  and  C_23
   10  A    between atoms: C_15  and  O_18
   11  A    between atoms: O_17  and  O_18
   12  A    between atoms: O_17  and  C_27
                            x       y       z     vdW  Elec       q    Type
                         _______ _______ _______ _____ _____    ______ ____

>  <TORSDO>
F 8

$$$$
=
 OpenBabel12172412393D

 34 35  0  0  1  0  0  0  0  0999 V2000
    3.3540   56.0680   20.0370 N   0  0  0  0  0  0  0  0  0  0  0  0
    4.6720   56.0270   21.9540 O   0  0  0  0  0  0  0  0  0  0  0  0
    4.2420   56.5920   20.9510 C   0  0  0  0  0  0  0  0  0  0  0  0
    3.1130   56.6650   19.2920 H   0  0  0  0  0  0  0  0  0  0  0  0
    4.0310   59.1350   21.3900 C   0  0  2  0  0  3  0  0  0  0  0  0
    6.3470   59.6990   20.8690 C   0  0  1  0  0  3  0  0  0  0  0  0
    6.1490   58.2320   20.8320 N   0  0  0  0  0  4  0  0  0  0  0  0
    4.7010   58.0140   20.5920 C   0  0  1  0  0  3  0  0  0  0  0  0
    7.0450   60.1460   19.5800 C   0  0  0  0  0  1  0  0  0  0  0  0
    4.9500   60.3270   21.0300 C   0  0  2  0  0  3  0  0  0  0  0  0
    6.4250   57.8170   21.7210 H   0  0  0  0  0  0  0  0  0  0  0  0
    6.7150   57.8000   20.1030 H   0  0  0  0  0  0  0  0  0  0  0  0
    4.7780   61.5250   21.9500 C   0  0  0  0  0  0  0  0  0  0  0  0
    4.0450   62.4780   21.6910 O   0  0  0  0  0  0  0  0  0  0  0  0
    5.5800   61.6430   23.2270 C   0  0  0  0  0  3  0  0  0  0  0  0
    5.0890   61.9900   24.2860 O   0  0  0  0  0  0  0  0  0  0  0  0
    2.5310   59.3230   23.5500 C   0  0  0  0  0  1  0  0  0  0  0  0
    3.8220   58.8460   22.8990 C   0  0  0  0  0  2  0  0  0  0  0  0
    1.9710   54.4900   18.8900 C   0  0  0  0  0  0  0  0  0  0  0  0
    1.4680   52.3290   19.8150 C   0  0  0  0  0  3  0  0  0  0  0  0
    2.8630   53.8590   21.0400 C   0  0  0  0  0  3  0  0  0  0  0  0
    2.7430   54.8020   20.0150 C   0  0  0  0  0  0  0  0  0  0  0  0
    1.3340   53.2610   18.7810 C   0  0  0  0  0  3  0  0  0  0  0  0
    2.2260   52.6050   20.9680 C   0  0  0  0  0  0  0  0  0  0  0  0
    1.8590   55.4240   17.8920 O   0  0  0  0  0  0  0  0  0  0  0  0
    2.4850   56.1180   17.8300 H   0  0  0  0  0  0  0  0  0  0  0  0
    2.3550   51.6280   21.9850 N   0  0  0  0  0  0  0  0  0  0  0  0
    1.2730   51.6460   23.3310 S   0  0  0  0  0  0  0  0  0  0  0  0
   -0.0580   52.2300   22.9680 O   0  0  0  0  0  0  0  0  0  0  0  0
    1.0880   50.3700   23.7640 H   0  0  0  0  0  0  0  0  0  0  0  0
    3.0950   50.3970   21.6240 C   0  0  2  0  0  3  0  0  0  0  0  0
    3.4050   49.5480   22.8620 C   0  0  0  0  0  1  0  0  0  0  0  0
    4.8350   49.4760   19.9870 C   0  0  0  0  0  1  0  0  0  0  0  0
    4.3660   50.6760   20.7990 C   0  0  0  0  0  2  0  0  0  0  0  0
  1  3  1  0  0  0  0
  3  2  2  0  0  0  0
  4  1  1  0  0  0  0
  5 18  1  1  0  0  0
  6  9  1  6  0  0  0
  6 10  1  0  0  0  0
  7  6  1  0  0  0  0
  7 11  1  0  0  0  0
  8  7  1  0  0  0  0
  8  3  1  1  0  0  0
  8  5  1  0  0  0  0
 10  5  1  0  0  0  0
 10 13  1  1  0  0  0
 12  7  1  0  0  0  0
 13 15  1  0  0  0  0
 14 13  2  0  0  0  0
 15 16  2  0  0  0  0
 18 17  1  0  0  0  0
 19 22  1  0  0  0  0
 20 24  2  0  0  0  0
 22  1  1  0  0  0  0
 22 21  2  0  0  0  0
 23 19  2  0  0  0  0
 23 20  1  0  0  0  0
 24 21  1  0  0  0  0
 24 27  1  0  0  0  0
 25 19  1  0  0  0  0
 26 25  1  0  0  0  0
 27 28  1  0  0  0  0
 28 30  1  0  0  0  0
 29 28  2  0  0  0  0
 31 27  1  0  0  0  0
 31 32  1  1  0  0  0
 33 34  1  0  0  0  0
 34 31  1  0  0  0  0
M  END
>  <MODEL>
1

>  <REMARK>
 VINA RESULT:      -7.0      0.000      0.000
  Name = 
  14 active torsions:
  status: ('A' for Active; 'I' for Inactive)
    1  A    between atoms: C_1  and  C_20
    2  A    between atoms: C_2  and  O_7
    3  A    between atoms: C_3  and  C_12
    4  A    between atoms: C_3  and  C_24
    5  A    between atoms: C_4  and  C_21
    6  A    between atoms: C_6  and  C_13
    7  A    between atoms: C_6  and  C_17
    8  A    between atoms: C_6  and  N_26
    9  A    between atoms: S_9  and  N_26
   10  A    between atoms: N_10  and  C_19
   11  A    between atoms: C_11  and  C_17
   12  A    between atoms: C_14  and  C_29
   13  A    between atoms: C_18  and  C_20
   14  A    between atoms: N_26  and  C_27
                            x       y       z     vdW  Elec       q    Type
                         _______ _______ _______ _____ _____    ______ ____

>  <TORSDO>
F 10

$$$$

     RDKit          2D

  1  0  0  0  0  0  0  0  0  0999 V2000
    0.0000    0.0000    0.0000 C   0  0  0  0  0  0  0  0  0  0  0  0
M  END
$$$$
=
 OpenBabel12172412403D

 31 33  0  0  1  0  0  0  0  0999 V2000
    5.9400   58.4500   21.2140 C   0  0  2  0  0  3  0  0  0  0  0  0
    2.5380   54.0740   22.5850 O   0  0  0  0  0  0  0  0  0  0  0  0
    4.3420   57.3180   19.6950 N   0  0  0  0  0  0  0  0  0  0  0  0
    3.4590   55.7800   21.1540 C   0  0  0  0  0  0  0  0  0  0  0  0
    2.6250   55.8210   18.8640 C   0  0  0  0  0  3  0  0  0  0  0  0
    1.6910   54.1490   20.3840 C   0  0  2  0  0  3  0  0  0  0  0  0
    4.3480   56.4450   21.8990 C   0  0  0  0  0  0  0  0  0  0  0  0
    4.8680   57.4100   20.8940 C   0  0  2  0  0  3  0  0  0  0  0  0
    3.4340   56.3050   19.8110 C   0  0  0  0  0  0  0  0  0  0  0  0
    1.7310   54.7230   19.1710 C   0  0  0  0  0  3  0  0  0  0  0  0
    2.5820   54.6350   21.4950 C   0  0  0  0  0  0  0  0  0  0  0  0
    0.8370   53.0960   20.6550 O   0  0  0  0  0  0  0  0  0  0  0  0
   -0.0360   53.2650   20.9500 H   0  0  0  0  0  0  0  0  0  0  0  0
    4.0640   56.6090   24.3300 C   0  0  0  0  0  2  0  0  0  0  0  0
    4.7980   56.3110   23.2510 C   0  0  0  0  0  3  0  0  0  0  0  0
    5.0260   62.1470   21.1410 C   0  0  0  0  0  3  0  0  0  0  0  0
    5.3620   59.7940   21.5960 C   0  0  0  0  0  0  0  0  0  0  0  0
    4.1210   61.1960   23.1940 C   0  0  0  0  0  0  0  0  0  0  0  0
    5.5360   60.9060   20.7660 C   0  0  0  0  0  3  0  0  0  0  0  0
    4.3320   62.2900   22.3450 C   0  0  0  0  0  3  0  0  0  0  0  0
    4.6390   59.9510   22.7920 C   0  0  0  0  0  3  0  0  0  0  0  0
    3.4200   61.2810   24.4130 N   0  0  0  0  0  0  0  0  0  0  0  0
    3.0440   62.8900   24.9560 S   0  0  0  0  0  0  0  0  0  0  0  0
    4.1460   63.4100   25.8290 O   0  0  0  0  0  0  0  0  0  0  0  0
    2.8980   63.7060   23.8790 H   0  0  0  0  0  0  0  0  0  0  0  0
    3.6960   60.3100   25.4810 C   0  0  0  0  0  2  0  0  0  0  0  0
    2.4380   59.5440   25.9180 C   0  0  0  0  0  2  0  0  0  0  0  0
   -0.0540   59.4210   25.3630 C   0  0  0  0  0  1  0  0  0  0  0  0
    1.3700   59.3750   24.8310 C   0  0  0  0  0  2  0  0  0  0  0  0
    6.7940   58.6520   20.0900 O   0  0  0  0  0  0  0  0  0  0  0  0
    6.4310   58.1870   19.3200 H   0  0  0  0  0  0  0  0  0  0  0  0
  1 30  1  6  0  0  0
  1 17  1  0  0  0  0
  3  9  2  0  0  0  0
  3  8  1  0  0  0  0
  4 11  1  0  0  0  0
  4  7  2  0  0  0  0
  5 10  2  0  0  0  0
  5  9  1  0  0  0  0
  6 12  1  6  0  0  0
  6 11  1  0  0  0  0
  7 15  1  0  0  0  0
  8  1  1  1  0  0  0
  8  7  1  0  0  0  0
  9  4  1  0  0  0  0
 10  6  1  0  0  0  0
 11  2  2  0  0  0  0
 12 13  1  0  0  0  0
 15 14  2  0  0  0  0
 16 20  1  0  0  0  0
 17 21  2  0  0  0  0
 18 22  1  0  0  0  0
 19 16  2  0  0  0  0
 19 17  1  0  0  0  0
 20 18  2  0  0  0  0
 21 18  1  0  0  0  0
 22 23  1  0  0  0  0
 22 26  1  0  0  0  0
 23 24  2  0  0  0  0
 25 23  1  0  0  0  0
 26 27  1  0  0  0  0
 29 28  1  0  0  0  0
 29 27  1  0  0  0  0
 31 30  1  0  0  0  0
M  END
>  <MODEL>
1

>  <REMARK>
 VINA RESULT:      -7.3      0.000      0.000
  Name = 
  11 active torsions:
  status: ('A' for Active; 'I' for Inactive)
    1  A    between atoms: O_1  and  C_14
    2  A    between atoms: C_4  and  C_14
    3  A    between atoms: C_6  and  N_22
    4  A    between atoms: C_9  and  C_21
    5  A    between atoms: C_10  and  C_13
    6  A    between atoms: C_10  and  N_22
    7  A    between atoms: S_11  and  N_22
    8  A    between atoms: C_13  and  C_21
    9  A    between atoms: C_14  and  C_19
   10  A    between atoms: O_15  and  C_16
   11  A    between atoms: C_17  and  C_28
                            x       y       z     vdW  Elec       q    Type
                         _______ _______ _______ _____ _____    ______ ____

>  <TORSDO>
F 10

$$$$
=
 OpenBabel12172412413D

 32 33  0  0  1  0  0  0  0  0999 V2000
    4.1070   59.2170   23.5480 C   0  0  2  0  0  3  0  0  0  0  0  0
    5.0550   60.0260   24.4390 C   0  0  2  0  0  3  0  0  0  0  0  0
    4.8350   57.7860   25.3190 C   0  0  1  0  0  3  0  0  0  0  0  0
    4.4220   57.8230   23.9080 N   0  0  0  0  0  4  0  0  0  0  0  0
    6.0910   56.9310   25.4070 C   0  0  0  0  0  1  0  0  0  0  0  0
    4.9350   59.2610   25.7680 C   0  0  1  0  0  3  0  0  0  0  0  0
    5.1800   57.4790   23.3200 H   0  0  0  0  0  0  0  0  0  0  0  0
    3.6020   57.2330   23.7680 H   0  0  0  0  0  0  0  0  0  0  0  0
    3.4580   59.7870   21.2710 O   0  0  0  0  0  0  0  0  0  0  0  0
    4.3500   59.4400   22.0500 C   0  0  0  0  0  0  0  0  0  0  0  0
    5.7550   59.1900   21.5300 C   0  0  0  0  0  2  0  0  0  0  0  0
    7.1710   62.3990   20.0850 C   0  0  0  0  0  2  0  0  0  0  0  0
    6.3130   61.6270   21.0920 C   0  0  2  0  0  3  0  0  0  0  0  0
    7.6130   60.0050   19.9660 C   0  0  0  0  0  2  0  0  0  0  0  0
    7.9250   61.3330   19.2740 C   0  0  1  0  0  3  0  0  0  0  0  0
    6.2000   60.2230   20.5040 C   0  0  1  0  0  3  0  0  0  0  0  0
    5.0280   62.2040   21.2470 O   0  0  0  0  0  0  0  0  0  0  0  0
    4.8240   62.2920   22.1900 H   0  0  0  0  0  0  0  0  0  0  0  0
    7.3870   61.2630   17.9480 O   0  0  0  0  0  0  0  0  0  0  0  0
    8.2810   60.6690   16.9980 C   0  0  2  0  0  3  0  0  0  0  0  0
    8.8010   61.8040   16.1200 C   0  0  0  0  0  1  0  0  0  0  0  0
    7.9680   58.1900   16.4380 C   0  0  0  0  0  1  0  0  0  0  0  0
    7.5720   59.6150   16.1600 C   0  0  0  0  0  0  0  0  0  0  0  0
    6.6380   59.8970   15.2350 C   0  0  0  0  0  2  0  0  0  0  0  0
    3.3060   61.9330   24.6820 C   0  0  0  0  0  1  0  0  0  0  0  0
    4.7610   61.5330   24.4830 C   0  0  0  0  0  2  0  0  0  0  0  0
    5.9550   59.5970   26.8660 C   0  0  2  0  0  3  0  0  0  0  0  0
    5.6880   58.7770   28.0240 O   0  0  0  0  0  0  0  0  0  0  0  0
    5.7380   57.8410   27.7760 H   0  0  0  0  0  0  0  0  0  0  0  0
    5.9750   61.0460   27.3730 C   0  0  0  0  0  2  0  0  0  0  0  0
    7.1100   61.2130   28.2280 O   0  0  0  0  0  0  0  0  0  0  0  0
    7.1430   60.4850   28.8680 H   0  0  0  0  0  0  0  0  0  0  0  0
  1 10  1  6  0  0  0
  1  4  1  0  0  0  0
  1  2  1  0  0  0  0
  2 26  1  1  0  0  0
  2  6  1  0  0  0  0
  3  5  1  6  0  0  0
  3  6  1  0  0  0  0
  4  3  1  0  0  0  0
  6 27  1  1  0  0  0
  7  4  1  0  0  0  0
  8  4  1  0  0  0  0
  9 10  2  0  0  0  0
 11 10  1  0  0  0  0
 12 13  1  0  0  0  0
 13 17  1  6  0  0  0
 14 16  1  0  0  0  0
 15 19  1  6  0  0  0
 15 14  1  0  0  0  0
 15 12  1  0  0  0  0
 16 13  1  0  0  0  0
 16 11  1  1  0  0  0
 17 18  1  0  0  0  0
 20 21  1  6  0  0  0
 20 19  1  0  0  0  0
 23 22  1  0  0  0  0
 23 20  1  0  0  0  0
 24 23  2  0  0  0  0
 26 25  1  0  0  0  0
 27 30  1  1  0  0  0
 27 28  1  0  0  0  0
 29 28  1  0  0  0  0
 30 31  1  0  0  0  0
 31 32  1  0  0  0  0
M  END
>  <MODEL>
1

>  <REMARK>
 VINA RESULT:      -6.9      0.000      0.000
  Name = 
  16 active torsions:
  status: ('A' for Active; 'I' for Inactive)
    1  A    between atoms: C_2  and  O_14
    2  A    between atoms: C_4  and  O_19
    3  A    between atoms: C_4  and  C_24
    4  A    between atoms: C_4  and  C_25
    5  A    between atoms: C_5  and  C_13
    6  A    between atoms: C_6  and  O_12
    7  A    between atoms: C_6  and  C_15
    8  A    between atoms: C_6  and  C_26
    9  A    between atoms: C_7  and  C_18
   10  A    between atoms: C_8  and  C_18
   11  A    between atoms: C_9  and  C_13
   12  A    between atoms: C_9  and  C_23
   13  A    between atoms: C_10  and  C_21
   14  A    between atoms: O_12  and  C_22
   15  A    between atoms: C_17  and  C_26
   16  A    between atoms: O_20  and  C_25
                            x       y       z     vdW  Elec       q    Type
                         _______ _______ _______ _____ _____    ______ ____

>  <TORSDO>
F 12

$$$$

     RDKit          2D

  1  0  0  0  0  0  0  0  0  0999 V2000
    0.0000    0.0000    0.0000 C   0  0  0  0  0  0  0  0  0  0  0  0
M  END
$$$$
=
 OpenBabel12172412413D

 30 31  0  0  1  0  0  0  0  0999 V2000
    5.0490   58.2960   21.4340 C   0  0  2  0  0  3  0  0  0  0  0  0
    3.6200   55.7560   22.0200 C   0  0  0  0  0  0  0  0  0  0  0  0
    4.1580   57.5810   20.4110 C   0  0  0  0  0  2  0  0  0  0  0  0
    5.0610   57.6070   22.8080 C   0  0  0  0  0  2  0  0  0  0  0  0
    3.1480   54.6480   22.2780 O   0  0  0  0  0  0  0  0  0  0  0  0
    4.1250   56.0770   20.6280 C   0  0  0  0  0  2  0  0  0  0  0  0
    3.7530   56.8490   23.0790 C   0  0  2  0  0  3  0  0  0  0  0  0
    3.7700   56.2330   24.4810 C   0  0  0  0  0  2  0  0  0  0  0  0
    5.8480   56.8850   25.4970 O   0  0  0  0  0  0  0  0  0  0  0  0
    4.6280   57.0550   25.4270 C   0  0  0  0  0  0  0  0  0  0  0  0
    3.9280   58.0380   26.3400 C   0  0  0  0  0  2  0  0  0  0  0  0
    4.3500   59.4610   25.9840 C   0  0  1  0  0  3  0  0  0  0  0  0
    4.3090   63.4280   27.1580 C   0  0  0  0  0  2  0  0  0  0  0  0
    3.6900   61.8070   25.3810 C   0  0  0  0  0  2  0  0  0  0  0  0
    6.4780   61.6010   28.1140 C   0  0  0  0  0  1  0  0  0  0  0  0
    5.6370   61.2720   26.8840 C   0  0  1  0  0  3  0  0  0  0  0  0
    3.1550   60.3820   25.6290 C   0  0  1  0  0  3  0  0  0  0  0  0
    5.0250   59.9990   27.1350 O   0  0  0  0  0  0  0  0  0  0  0  0
    4.5470   62.2610   26.5350 C   0  0  0  0  0  0  0  0  0  0  0  0
    2.3500   59.9070   24.4020 C   0  0  0  0  0  2  0  0  0  0  0  0
    0.9220   59.5070   24.7550 C   0  0  0  0  0  1  0  0  0  0  0  0
    4.5540   59.6260   21.6160 O   0  0  0  0  0  0  0  0  0  0  0  0
    5.5040   60.2950   22.5000 O   0  0  0  0  0  0  0  0  0  0  0  0
    5.5650   61.6820   22.1230 C   0  0  2  0  0  3  0  0  0  0  0  0
    4.2750   62.1330   21.4400 C   0  0  0  0  0  1  0  0  0  0  0  0
    6.8380   62.0210   21.4860 N   0  0  0  0  0  4  0  0  0  0  0  0
    7.5720   61.4940   21.9600 H   0  0  0  0  0  0  0  0  0  0  0  0
    6.9210   63.0350   21.5730 H   0  0  0  0  0  0  0  0  0  0  0  0
    7.6420   60.4200   19.7960 C   0  0  0  0  0  1  0  0  0  0  0  0
    6.9470   61.7480   20.0570 C   0  0  0  0  0  2  0  0  0  0  0  0
  1 22  1  1  0  0  0
  1  4  1  0  0  0  0
  2  5  2  0  0  0  0
  2  7  1  0  0  0  0
  3  6  1  0  0  0  0
  3  1  1  0  0  0  0
  4  7  1  0  0  0  0
  6  2  1  0  0  0  0
  7  8  1  1  0  0  0
  8 10  1  0  0  0  0
 10  9  2  0  0  0  0
 10 11  1  0  0  0  0
 12 11  1  1  0  0  0
 12 18  1  0  0  0  0
 14 17  1  0  0  0  0
 14 19  1  0  0  0  0
 16 18  1  0  0  0  0
 16 15  1  1  0  0  0
 17 20  1  6  0  0  0
 17 12  1  0  0  0  0
 19 16  1  0  0  0  0
 19 13  2  0  0  0  0
 20 21  1  0  0  0  0
 22 23  1  0  0  0  0
 24 25  1  6  0  0  0
 24 23  1  0  0  0  0
 26 28  1  0  0  0  0
 26 27  1  0  0  0  0
 26 24  1  0  0  0  0
 29 30  1  0  0  0  0
 30 26  1  0  0  0  0
M  END
>  <MODEL>
1

>  <REMARK>
 VINA RESULT:      -6.6      0.000      0.000
  Name = 
  14 active torsions:
  status: ('A' for Active; 'I' for Inactive)
    1  A    between atoms: C_1  and  O_18
    2  A    between atoms: C_3  and  C_5
    3  A    between atoms: C_4  and  C_17
    4  A    between atoms: C_4  and  C_22
    5  A    between atoms: C_5  and  C_26
    6  A    between atoms: C_6  and  N_10
    7  A    between atoms: C_6  and  O_15
    8  A    between atoms: C_6  and  C_25
    9  A    between atoms: C_8  and  C_26
   10  A    between atoms: C_8  and  C_27
   11  A    between atoms: N_10  and  C_20
   12  A    between atoms: C_13  and  C_21
   13  A    between atoms: O_15  and  O_18
   14  A    between atoms: C_16  and  C_20
                            x       y       z     vdW  Elec       q    Type
                         _______ _______ _______ _____ _____    ______ ____

>  <TORSDO>
F 10

$$$$
=
 OpenBabel12172412423D

 32 32  0  0  1  0  0  0  0  0999 V2000
    4.4160   56.8810   23.7820 C   0  0  0  0  0  0  0  0  0  0  0  0
    4.6050   57.4390   21.3420 C   0  0  1  0  0  3  0  0  0  0  0  0
    3.9250   56.8400   22.4740 N   0  0  0  0  0  0  0  0  0  0  0  0
    2.8820   55.8530   22.1590 C   0  0  0  0  0  2  0  0  0  0  0  0
    3.9710   55.4430   19.9120 C   0  0  0  0  0  2  0  0  0  0  0  0
    3.4320   54.7600   21.2050 C   0  0  2  0  0  3  0  0  0  0  0  0
    4.0430   56.9690   19.9970 C   0  0  0  0  0  2  0  0  0  0  0  0
    3.9060   56.2020   24.6790 O   0  0  0  0  0  0  0  0  0  0  0  0
    4.4260   58.8690   21.4740 N   0  0  0  0  0  4  0  0  0  0  0  0
    3.8270   59.0650   22.2760 H   0  0  0  0  0  0  0  0  0  0  0  0
    3.9910   59.2380   20.6280 H   0  0  0  0  0  0  0  0  0  0  0  0
    5.3340   59.3140   21.6120 H   0  0  0  0  0  0  0  0  0  0  0  0
    5.5850   57.8340   24.0860 C   0  0  0  0  0  2  0  0  0  0  0  0
    5.2770   58.7400   25.2740 C   0  0  0  0  0  0  0  0  0  0  0  0
    5.9240   58.6550   26.4640 C   0  0  0  0  0  0  0  0  0  0  0  0
    4.7450   59.2880   28.4420 O   0  0  0  0  0  0  0  0  0  0  0  0
    5.5160   59.6180   27.5400 C   0  0  0  0  0  0  0  0  0  0  0  0
    6.1080   61.0230   27.4670 C   0  0  0  0  0  2  0  0  0  0  0  0
    7.0920   61.2220   28.4780 O   0  0  0  0  0  0  0  0  0  0  0  0
    6.7290   61.7890   29.1760 H   0  0  0  0  0  0  0  0  0  0  0  0
    7.0240   57.7400   26.7410 C   0  0  0  0  0  3  0  0  0  0  0  0
    6.9130   56.5550   27.3570 C   0  0  0  0  0  2  0  0  0  0  0  0
    4.7000   60.9440   24.1670 C   0  0  0  0  0  1  0  0  0  0  0  0
    4.1870   59.7630   24.9800 C   0  0  0  0  0  2  0  0  0  0  0  0
    2.5360   53.6280   20.8190 N   0  0  0  0  0  0  0  0  0  0  0  0
    3.0350   52.0790   21.3030 S   0  0  0  0  0  0  0  0  0  0  0  0
    4.0750   51.4810   20.4060 O   0  0  0  0  0  0  0  0  0  0  0  0
    3.5470   52.1640   22.5600 H   0  0  0  0  0  0  0  0  0  0  0  0
    1.1000   53.9390   20.9360 C   0  0  0  0  0  2  0  0  0  0  0  0
    0.4270   54.4050   19.6290 C   0  0  0  0  0  2  0  0  0  0  0  0
    1.0920   53.9110   18.3390 C   0  0  0  0  0  2  0  0  0  0  0  0
    0.6300   52.5280   17.9050 C   0  0  0  0  0  1  0  0  0  0  0  0
  1 13  1  0  0  0  0
  1  8  2  0  0  0  0
  2  9  1  1  0  0  0
  2  3  1  0  0  0  0
  3  1  1  0  0  0  0
  4  3  1  0  0  0  0
  5  7  1  0  0  0  0
  5  6  1  0  0  0  0
  6 25  1  6  0  0  0
  6  4  1  0  0  0  0
  7  2  1  0  0  0  0
  9 12  1  0  0  0  0
  9 10  1  0  0  0  0
 11  9  1  0  0  0  0
 13 14  1  0  0  0  0
 14 15  2  0  0  0  0
 15 21  1  0  0  0  0
 15 17  1  0  0  0  0
 17 16  2  0  0  0  0
 18 17  1  0  0  0  0
 18 19  1  0  0  0  0
 19 20  1  0  0  0  0
 21 22  2  0  0  0  0
 23 24  1  0  0  0  0
 24 14  1  0  0  0  0
 25 29  1  0  0  0  0
 25 26  1  0  0  0  0
 26 28  1  0  0  0  0
 27 26  2  0  0  0  0
 30 29  1  0  0  0  0
 31 30  1  0  0  0  0
 32 31  1  0  0  0  0
M  END
>  <MODEL>
1

>  <REMARK>
 VINA RESULT:      -5.6      0.000      0.000
  Name = 
  15 active torsions:
  status: ('A' for Active; 'I' for Inactive)
    1  A    between atoms: C_1  and  C_9
    2  A    between atoms: C_2  and  C_9
    3  A    between atoms: C_2  and  C_19
    4  A    between atoms: S_3  and  N_22
    5  A    between atoms: O_4  and  C_13
    6  A    between atoms: C_6  and  N_26
    7  A    between atoms: C_8  and  C_10
    8  A    between atoms: C_8  and  C_17
    9  A    between atoms: C_10  and  N_22
   10  A    between atoms: C_11  and  C_15
   11  A    between atoms: C_11  and  C_25
   12  A    between atoms: C_13  and  C_25
   13  A    between atoms: C_17  and  C_24
   14  A    between atoms: C_18  and  C_19
   15  A    between atoms: C_20  and  N_22
                            x       y       z     vdW  Elec       q    Type
                         _______ _______ _______ _____ _____    ______ ____

>  <TORSDO>
F 13

$$$$
=
 OpenBabel12172412433D

 33 34  0  0  1  0  0  0  0  0999 V2000
    4.8310   60.1140   23.9840 N   0  0  0  0  0  0  0  0  0  0  0  0
    3.6020   59.5750   24.3000 C   0  0  0  0  0  0  0  0  0  0  0  0
    2.5960   59.6090   23.5930 O   0  0  0  0  0  0  0  0  0  0  0  0
    5.5230   60.0410   24.6790 H   0  0  0  0  0  0  0  0  0  0  0  0
    4.9060   59.0210   26.4630 C   0  0  1  0  0  3  0  0  0  0  0  0
    4.5340   56.7400   25.8130 C   0  0  2  0  0  3  0  0  0  0  0  0
    3.2780   57.4670   25.5840 N   0  0  0  0  0  4  0  0  0  0  0  0
    5.1840   57.5770   26.9090 C   0  0  1  0  0  3  0  0  0  0  0  0
    5.3510   56.5790   24.5300 C   0  0  0  0  0  1  0  0  0  0  0  0
    3.5660   58.9240   25.7100 C   0  0  2  0  0  3  0  0  0  0  0  0
    2.5840   57.1890   26.2770 H   0  0  0  0  0  0  0  0  0  0  0  0
    2.9090   57.2560   24.6560 H   0  0  0  0  0  0  0  0  0  0  0  0
    7.5670   57.9540   26.6950 O   0  0  0  0  0  0  0  0  0  0  0  0
    6.6520   57.2500   27.1270 C   0  0  0  0  0  0  0  0  0  0  0  0
    6.9640   56.0110   27.9620 C   0  0  0  0  0  2  0  0  0  0  0  0
    6.6640   56.2170   29.3340 O   0  0  0  0  0  0  0  0  0  0  0  0
    5.7110   56.3620   29.4390 H   0  0  0  0  0  0  0  0  0  0  0  0
    4.9390   60.0540   27.6050 C   0  0  0  0  0  2  0  0  0  0  0  0
    5.8800   61.2380   27.4260 C   0  0  0  0  0  1  0  0  0  0  0  0
    5.9180   60.1430   21.7530 C   0  0  0  0  0  3  0  0  0  0  0  0
    4.8830   62.1150   22.6740 C   0  0  0  0  0  0  0  0  0  0  0  0
    5.9180   62.2270   20.5080 C   0  0  0  0  0  3  0  0  0  0  0  0
    5.2220   60.7570   22.7920 C   0  0  0  0  0  0  0  0  0  0  0  0
    5.2250   62.8530   21.5440 C   0  0  0  0  0  3  0  0  0  0  0  0
    6.2530   60.8750   20.6090 C   0  0  0  0  0  0  0  0  0  0  0  0
    4.2010   62.7030   23.7110 O   0  0  0  0  0  0  0  0  0  0  0  0
    4.6170   62.8130   24.5430 H   0  0  0  0  0  0  0  0  0  0  0  0
    6.9550   60.1980   19.6370 O   0  0  0  0  0  0  0  0  0  0  0  0
    7.6510   61.1830   18.8110 O   0  0  0  0  0  0  0  0  0  0  0  0
    8.5430   61.2570   16.5400 C   0  0  0  0  0  1  0  0  0  0  0  0
    8.4170   60.4580   17.8350 C   0  0  2  0  0  3  0  0  0  0  0  0
    7.8520   59.0440   17.6470 C   0  0  0  0  0  2  0  0  0  0  0  0
    8.2230   58.4180   16.3120 C   0  0  0  0  0  1  0  0  0  0  0  0
  1  2  1  0  0  0  0
  1  4  1  0  0  0  0
  3  2  2  0  0  0  0
  5  8  1  0  0  0  0
  5 18  1  1  0  0  0
  6  9  1  6  0  0  0
  6  8  1  0  0  0  0
  7 10  1  0  0  0  0
  7  6  1  0  0  0  0
  7 11  1  0  0  0  0
  8 14  1  6  0  0  0
 10  2  1  6  0  0  0
 10  5  1  0  0  0  0
 12  7  1  0  0  0  0
 13 14  2  0  0  0  0
 14 15  1  0  0  0  0
 15 16  1  0  0  0  0
 16 17  1  0  0  0  0
 19 18  1  0  0  0  0
 20 23  1  0  0  0  0
 21 23  2  0  0  0  0
 21 26  1  0  0  0  0
 22 25  1  0  0  0  0
 22 24  2  0  0  0  0
 23  1  1  0  0  0  0
 24 21  1  0  0  0  0
 25 20  2  0  0  0  0
 26 27  1  0  0  0  0
 28 25  1  0  0  0  0
 29 28  1  0  0  0  0
 31 30  1  6  0  0  0
 31 29  1  0  0  0  0
 32 31  1  0  0  0  0
 33 32  1  0  0  0  0
M  END
>  <MODEL>
1

>  <REMARK>
 VINA RESULT:      -6.5      0.000      0.000
  Name = 
  15 active torsions:
  status: ('A' for Active; 'I' for Inactive)
    1  A    between atoms: N_1  and  C_15
    2  A    between atoms: C_3  and  C_11
    3  A    between atoms: C_5  and  C_26
    4  A    between atoms: C_6  and  O_19
    5  A    between atoms: C_7  and  O_14
    6  A    between atoms: C_7  and  C_28
    7  A    between atoms: C_9  and  C_20
    8  A    between atoms: C_11  and  C_25
    9  A    between atoms: C_12  and  C_21
   10  A    between atoms: C_12  and  C_27
   11  A    between atoms: C_13  and  C_28
   12  A    between atoms: C_18  and  C_27
   13  A    between atoms: O_22  and  O_23
   14  A    between atoms: O_22  and  C_24
   15  A    between atoms: O_23  and  C_27
                            x       y       z     vdW  Elec       q    Type
                         _______ _______ _______ _____ _____    ______ ____

>  <TORSDO>
F 11

$$$$
=
 OpenBabel12172412433D

 32 33  0  0  1  0  0  0  0  0999 V2000
    3.9100   58.9190   21.5330 N   0  0  0  0  0  0  0  0  0  0  0  0
    5.8900   57.9350   22.2850 O   0  0  0  0  0  0  0  0  0  0  0  0
    4.8320   57.8920   21.6650 C   0  0  0  0  0  0  0  0  0  0  0  0
    3.1910   58.8030   20.8700 H   0  0  0  0  0  0  0  0  0  0  0  0
    2.5910   55.6520   19.7020 C   0  0  1  0  0  3  0  0  0  0  0  0
    3.2390   54.6220   20.6370 C   0  0  1  0  0  3  0  0  0  0  0  0
    3.8620   55.4800   21.7490 C   0  0  1  0  0  3  0  0  0  0  0  0
    3.3760   56.8990   19.8430 N   0  0  0  0  0  4  0  0  0  0  0  0
    4.4090   56.6340   20.8920 C   0  0  1  0  0  3  0  0  0  0  0  0
    2.5550   55.1860   18.2490 C   0  0  0  0  0  1  0  0  0  0  0  0
    2.7690   57.6660   20.1310 H   0  0  0  0  0  0  0  0  0  0  0  0
    3.8080   57.1640   18.9580 H   0  0  0  0  0  0  0  0  0  0  0  0
    2.8810   52.5010   21.6760 O   0  0  0  0  0  0  0  0  0  0  0  0
    0.8630   53.5800   21.0210 C   0  0  0  0  0  1  0  0  0  0  0  0
    2.3620   53.4870   21.1440 C   0  0  0  0  0  0  0  0  0  0  0  0
    2.9760   55.4390   24.1660 C   0  0  0  0  0  2  0  0  0  0  0  0
    2.8900   55.7880   22.8760 C   0  0  0  0  0  3  0  0  0  0  0  0
    3.9240   60.1190   22.2800 C   0  0  0  0  0  0  0  0  0  0  0  0
    3.4870   61.5620   24.1640 C   0  0  0  0  0  3  0  0  0  0  0  0
    4.0340   62.6520   23.4820 C   0  0  0  0  0  3  0  0  0  0  0  0
    4.5190   61.2190   21.6280 C   0  0  0  0  0  0  0  0  0  0  0  0
    4.5700   62.4800   22.2130 C   0  0  0  0  0  3  0  0  0  0  0  0
    3.4410   60.2710   23.5930 C   0  0  0  0  0  0  0  0  0  0  0  0
    2.9880   59.0990   24.4720 C   0  0  2  0  0  3  0  0  0  0  0  0
    1.4710   59.1290   24.7060 C   0  0  0  0  0  1  0  0  0  0  0  0
    3.8090   59.0270   25.7920 C   0  0  1  0  0  3  0  0  0  0  0  0
    3.3250   57.9750   26.6370 O   0  0  0  0  0  0  0  0  0  0  0  0
    3.9300   57.8570   27.3860 H   0  0  0  0  0  0  0  0  0  0  0  0
    5.3140   58.7800   25.5870 C   0  0  0  0  0  2  0  0  0  0  0  0
    5.7350   57.3260   25.7370 C   0  0  0  0  0  1  0  0  0  0  0  0
    5.0390   61.0260   20.3680 O   0  0  0  0  0  0  0  0  0  0  0  0
    5.9600   60.9020   20.2560 H   0  0  0  0  0  0  0  0  0  0  0  0
  1  3  1  0  0  0  0
  1 18  1  0  0  0  0
  3  2  2  0  0  0  0
  4  1  1  0  0  0  0
  5 10  1  6  0  0  0
  5  8  1  0  0  0  0
  5  6  1  0  0  0  0
  6 15  1  1  0  0  0
  6  7  1  0  0  0  0
  7 17  1  1  0  0  0
  8 11  1  0  0  0  0
  8  9  1  0  0  0  0
  9  3  1  1  0  0  0
  9  7  1  0  0  0  0
 12  8  1  0  0  0  0
 14 15  1  0  0  0  0
 15 13  2  0  0  0  0
 17 16  2  0  0  0  0
 18 23  1  0  0  0  0
 20 19  1  0  0  0  0
 21 22  1  0  0  0  0
 21 18  2  0  0  0  0
 22 20  2  0  0  0  0
 23 19  2  0  0  0  0
 23 24  1  0  0  0  0
 24 25  1  1  0  0  0
 24 26  1  0  0  0  0
 26 29  1  6  0  0  0
 26 27  1  0  0  0  0
 27 28  1  0  0  0  0
 29 30  1  0  0  0  0
 31 21  1  0  0  0  0
 32 31  1  0  0  0  0
M  END
>  <MODEL>
1

>  <REMARK>
 VINA RESULT:      -5.9      0.000      0.000
  Name = 
  13 active torsions:
  status: ('A' for Active; 'I' for Inactive)
    1  A    between atoms: C_1  and  N_16
    2  A    between atoms: C_4  and  C_23
    3  A    between atoms: C_5  and  C_24
    4  A    between atoms: C_6  and  C_24
    5  A    between atoms: C_7  and  O_8
    6  A    between atoms: C_7  and  C_14
    7  A    between atoms: C_7  and  C_15
    8  A    between atoms: C_10  and  O_20
    9  A    between atoms: C_11  and  C_26
   10  A    between atoms: C_14  and  C_21
   11  A    between atoms: C_15  and  C_18
   12  A    between atoms: C_15  and  C_19
   13  A    between atoms: C_22  and  C_27
                            x       y       z     vdW  Elec       q    Type
                         _______ _______ _______ _____ _____    ______ ____

>  <TORSDO>
F 9

$$$$
=
 OpenBabel12172412443D

 36 37  0  0  1  0  0  0  0  0999 V2000
    5.4360   58.7160   22.1040 N   0  0  0  0  0  0  0  0  0  0  0  0
    4.6420   57.7020   21.6090 C   0  0  0  0  0  0  0  0  0  0  0  0
    3.9730   57.7450   20.5770 O   0  0  0  0  0  0  0  0  0  0  0  0
    5.8730   58.5360   22.9670 H   0  0  0  0  0  0  0  0  0  0  0  0
    4.6570   57.1610   24.7820 C   0  0  1  0  0  3  0  0  0  0  0  0
    4.6100   56.4540   22.5320 C   0  0  2  0  0  3  0  0  0  0  0  0
    3.2190   56.1870   23.1400 C   0  0  2  0  0  3  0  0  0  0  0  0
    5.3780   57.0510   26.1180 C   0  0  0  0  0  1  0  0  0  0  0  0
    5.5110   56.6620   23.6970 N   0  0  0  0  0  4  0  0  0  0  0  0
    3.4490   56.2420   24.6610 C   0  0  2  0  0  3  0  0  0  0  0  0
    5.9510   55.7830   23.9680 H   0  0  0  0  0  0  0  0  0  0  0  0
    6.2600   57.3200   23.4780 H   0  0  0  0  0  0  0  0  0  0  0  0
    2.2540   56.7980   25.4170 C   0  0  0  0  0  0  0  0  0  0  0  0
    1.4700   56.0620   26.0160 O   0  0  0  0  0  0  0  0  0  0  0  0
    0.9790   58.6980   24.6920 F   0  0  0  0  0  0  0  0  0  0  0  0
    2.0890   58.3030   25.3760 C   0  0  0  0  0  2  0  0  0  0  0  0
    3.1360   54.2410   21.4120 C   0  0  0  0  0  1  0  0  0  0  0  0
    2.5410   54.8930   22.6540 C   0  0  0  0  0  2  0  0  0  0  0  0
    6.0950   62.5750   20.5510 C   0  0  0  0  0  3  0  0  0  0  0  0
    6.5490   60.1910   20.4470 C   0  0  0  0  0  3  0  0  0  0  0  0
    5.0540   61.0770   22.1180 C   0  0  0  0  0  0  0  0  0  0  0  0
    5.7000   59.9770   21.5310 C   0  0  0  0  0  0  0  0  0  0  0  0
    6.7340   61.4850   19.9520 C   0  0  0  0  0  0  0  0  0  0  0  0
    5.2460   62.3710   21.6390 C   0  0  0  0  0  3  0  0  0  0  0  0
    4.2250   60.8460   23.1880 O   0  0  0  0  0  0  0  0  0  0  0  0
    3.8950   59.9830   23.3470 H   0  0  0  0  0  0  0  0  0  0  0  0
    7.6020   61.6170   18.8920 O   0  0  0  0  0  0  0  0  0  0  0  0
    7.6650   60.3330   18.1970 O   0  0  0  0  0  0  0  0  0  0  0  0
    8.6830   61.7570   16.5400 C   0  0  0  0  0  1  0  0  0  0  0  0
    8.7620   60.4290   17.2790 C   0  0  2  0  0  3  0  0  0  0  0  0
    8.7400   59.1920   16.3720 C   0  0  0  0  0  2  0  0  0  0  0  0
    7.3620   58.6920   15.9280 C   0  0  0  0  0  2  0  0  0  0  0  0
    6.8930   57.5530   16.7100 N   0  0  0  0  0  4  0  0  0  0  0  0
    7.1110   57.7040   17.6950 H   0  0  0  0  0  0  0  0  0  0  0  0
    7.3560   56.7030   16.3860 H   0  0  0  0  0  0  0  0  0  0  0  0
    5.8840   57.4540   16.5970 H   0  0  0  0  0  0  0  0  0  0  0  0
  1  4  1  0  0  0  0
  2  1  1  0  0  0  0
  3  2  2  0  0  0  0
  5  8  1  1  0  0  0
  6  2  1  6  0  0  0
  6  7  1  0  0  0  0
  6  9  1  0  0  0  0
  7 18  1  1  0  0  0
  7 10  1  0  0  0  0
  9 11  1  0  0  0  0
  9  5  1  0  0  0  0
 10  5  1  0  0  0  0
 10 13  1  1  0  0  0
 12  9  1  0  0  0  0
 13 14  2  0  0  0  0
 15 16  1  0  0  0  0
 16 13  1  0  0  0  0
 17 18  1  0  0  0  0
 19 24  1  0  0  0  0
 20 22  2  0  0  0  0
 21 25  1  0  0  0  0
 22  1  1  0  0  0  0
 22 21  1  0  0  0  0
 23 20  1  0  0  0  0
 23 19  2  0  0  0  0
 24 21  2  0  0  0  0
 25 26  1  0  0  0  0
 27 23  1  0  0  0  0
 28 27  1  0  0  0  0
 30 29  1  6  0  0  0
 30 28  1  0  0  0  0
 31 30  1  0  0  0  0
 32 31  1  0  0  0  0
 32 33  1  0  0  0  0
 33 34  1  0  0  0  0
 35 33  1  0  0  0  0
 36 33  1  0  0  0  0
M  END
>  <MODEL>
1

>  <REMARK>
 VINA RESULT:      -7.0      0.000      0.000
  Name = 
  15 active torsions:
  status: ('A' for Active; 'I' for Inactive)
    1  A    between atoms: C_1  and  C_12
    2  A    between atoms: C_2  and  C_10
    3  A    between atoms: C_2  and  C_23
    4  A    between atoms: C_3  and  C_16
    5  A    between atoms: N_4  and  C_15
    6  A    between atoms: C_8  and  C_21
    7  A    between atoms: C_9  and  C_18
    8  A    between atoms: C_9  and  C_27
    9  A    between atoms: N_11  and  C_18
   10  A    between atoms: C_13  and  O_20
   11  A    between atoms: C_14  and  C_21
   12  A    between atoms: C_22  and  C_27
   13  A    between atoms: C_24  and  O_25
   14  A    between atoms: O_25  and  O_26
   15  A    between atoms: O_26  and  C_27
                            x       y       z     vdW  Elec       q    Type
                         _______ _______ _______ _____ _____    ______ ____

>  <TORSDO>
F 12

$$$$
=
 OpenBabel12172412453D

 35 36  0  0  1  0  0  0  0  0999 V2000
    6.0310   60.2690   27.2400 C   0  0  1  0  0  3  0  0  0  0  0  0
    5.3870   61.0700   26.2000 N   0  0  0  0  0  4  0  0  0  0  0  0
    5.0790   60.1370   25.0930 C   0  0  1  0  0  3  0  0  0  0  0  0
    6.0720   60.9870   28.5830 C   0  0  0  0  0  1  0  0  0  0  0  0
    4.7590   58.7900   25.7790 C   0  0  2  0  0  3  0  0  0  0  0  0
    5.3330   58.9110   27.2020 C   0  0  2  0  0  3  0  0  0  0  0  0
    6.0160   61.8050   25.8790 H   0  0  0  0  0  0  0  0  0  0  0  0
    4.5430   61.5250   26.5490 H   0  0  0  0  0  0  0  0  0  0  0  0
    4.2920   58.6900   28.2920 C   0  0  0  0  0  0  0  0  0  0  0  0
    4.6220   58.1870   29.3730 O   0  0  0  0  0  0  0  0  0  0  0  0
    2.8410   59.1030   28.0580 C   0  0  0  0  0  2  0  0  0  0  0  0
    2.7340   60.5210   27.9760 O   0  0  0  0  0  0  0  0  0  0  0  0
    3.6170   60.9170   28.0470 H   0  0  0  0  0  0  0  0  0  0  0  0
    3.9120   60.7260   24.2560 C   0  0  2  0  0  3  0  0  0  0  0  0
    2.7430   60.7830   25.0940 O   0  0  0  0  0  0  0  0  0  0  0  0
    2.6670   61.6670   25.4840 H   0  0  0  0  0  0  0  0  0  0  0  0
    3.6150   59.9050   22.9920 C   0  0  0  0  0  2  0  0  0  0  0  0
    6.3450   58.8130   20.5580 C   0  0  0  0  0  3  0  0  0  0  0  0
    5.2760   61.1800   21.5700 C   0  0  0  0  0  3  0  0  0  0  0  0
    6.3260   61.2220   20.6510 C   0  0  0  0  0  3  0  0  0  0  0  0
    4.7500   59.9530   21.9920 C   0  0  0  0  0  0  0  0  0  0  0  0
    6.8710   60.0380   20.1370 C   0  0  0  0  0  0  0  0  0  0  0  0
    5.2960   58.7700   21.4800 C   0  0  0  0  0  3  0  0  0  0  0  0
    8.0120   60.0880   19.1490 C   0  0  0  0  0  2  0  0  0  0  0  0
    7.9050   61.2090   18.1050 C   0  0  0  0  0  2  0  0  0  0  0  0
    8.1290   60.7370   16.6580 C   0  0  1  0  0  3  0  0  0  0  0  0
    8.2170   59.2150   16.5640 C   0  0  0  0  0  1  0  0  0  0  0  0
    7.1480   61.2320   15.7390 O   0  0  0  0  0  0  0  0  0  0  0  0
    7.8240   62.1270   14.8100 O   0  0  0  0  0  0  0  0  0  0  0  0
    7.2240   62.3490   14.0800 H   0  0  0  0  0  0  0  0  0  0  0  0
    5.3630   57.6020   25.0120 C   0  0  0  0  0  2  0  0  0  0  0  0
    6.4500   56.9910   25.7690 N   0  0  0  0  0  4  0  0  0  0  0  0
    6.3040   57.1540   26.7650 H   0  0  0  0  0  0  0  0  0  0  0  0
    7.3380   57.4040   25.4820 H   0  0  0  0  0  0  0  0  0  0  0  0
    6.4680   55.9870   25.5880 H   0  0  0  0  0  0  0  0  0  0  0  0
  1  4  1  1  0  0  0
  2  8  1  0  0  0  0
  2  1  1  0  0  0  0
  3 14  1  1  0  0  0
  3  5  1  0  0  0  0
  3  2  1  0  0  0  0
  5 31  1  6  0  0  0
  5  6  1  0  0  0  0
  6  1  1  0  0  0  0
  6  9  1  1  0  0  0
  7  2  1  0  0  0  0
  9 10  2  0  0  0  0
 11  9  1  0  0  0  0
 12 13  1  0  0  0  0
 12 11  1  0  0  0  0
 14 17  1  6  0  0  0
 14 15  1  0  0  0  0
 15 16  1  0  0  0  0
 18 23  1  0  0  0  0
 19 21  1  0  0  0  0
 20 19  2  0  0  0  0
 21 17  1  0  0  0  0
 22 18  2  0  0  0  0
 22 20  1  0  0  0  0
 23 21  2  0  0  0  0
 24 22  1  0  0  0  0
 25 24  1  0  0  0  0
 26 27  1  1  0  0  0
 26 25  1  0  0  0  0
 28 26  1  0  0  0  0
 29 28  1  0  0  0  0
 30 29  1  0  0  0  0
 31 32  1  0  0  0  0
 32 33  1  0  0  0  0
 34 32  1  0  0  0  0
 35 32  1  0  0  0  0
M  END
>  <MODEL>
1

>  <REMARK>
 VINA RESULT:      -6.4      0.000      0.000
  Name = 
  16 active torsions:
  status: ('A' for Active; 'I' for Inactive)
    1  A    between atoms: C_2  and  C_18
    2  A    between atoms: C_3  and  C_9
    3  A    between atoms: C_3  and  C_15
    4  A    between atoms: C_3  and  O_19
    5  A    between atoms: C_4  and  C_22
    6  A    between atoms: C_4  and  C_26
    7  A    between atoms: C_8  and  N_12
    8  A    between atoms: C_8  and  C_25
    9  A    between atoms: C_9  and  C_23
   10  A    between atoms: O_11  and  C_22
   11  A    between atoms: O_13  and  O_20
   12  A    between atoms: C_14  and  C_16
   13  A    between atoms: C_14  and  C_17
   14  A    between atoms: C_14  and  O_20
   15  A    between atoms: C_16  and  C_21
   16  A    between atoms: C_21  and  C_24
                            x       y       z     vdW  Elec       q    Type
                         _______ _______ _______ _____ _____    ______ ____

>  <TORSDO>
F 14

$$$$
=
 OpenBabel12172412463D

 31 33  0  0  1  0  0  0  0  0999 V2000
    3.9270   57.9000   23.4120 C   0  0  2  0  0  3  0  0  0  0  0  0
    5.9060   61.7070   20.6320 C   0  0  1  0  0  3  0  0  0  0  0  0
    7.4010   59.1820   20.1030 C   0  0  0  0  0  2  0  0  0  0  0  0
    4.1930   60.1120   21.8590 C   0  0  2  0  0  3  0  0  0  0  0  0
    5.9310   59.2230   20.4960 C   0  0  1  0  0  3  0  0  0  0  0  0
    4.1790   58.5590   22.0390 C   0  0  1  0  0  3  0  0  0  0  0  0
    7.3840   61.7240   20.1780 C   0  0  1  0  0  3  0  0  0  0  0  0
    5.4090   58.0180   21.2670 C   0  0  0  0  0  2  0  0  0  0  0  0
    7.7750   60.4780   19.3800 C   0  0  0  0  0  2  0  0  0  0  0  0
    5.6310   60.4190   21.4130 C   0  0  1  0  0  3  0  0  0  0  0  0
    3.5340   60.9900   22.9330 C   0  0  0  0  0  2  0  0  0  0  0  0
    4.4160   61.6250   23.9950 C   0  0  0  0  0  1  0  0  0  0  0  0
    5.6920   62.8760   21.4250 O   0  0  0  0  0  0  0  0  0  0  0  0
    6.4550   63.0160   22.0060 H   0  0  0  0  0  0  0  0  0  0  0  0
    7.6140   62.8850   19.3760 O   0  0  0  0  0  0  0  0  0  0  0  0
    6.8440   63.4730   19.4310 H   0  0  0  0  0  0  0  0  0  0  0  0
    4.9710   57.8180   24.5100 C   0  0  0  0  0  0  0  0  0  0  0  0
    5.7680   58.8040   26.6590 C   0  0  0  0  0  0  0  0  0  0  0  0
    6.7520   57.8050   26.6750 C   0  0  0  0  0  3  0  0  0  0  0  0
    5.9670   56.8490   24.5930 C   0  0  0  0  0  3  0  0  0  0  0  0
    6.8540   56.8450   25.6650 C   0  0  0  0  0  3  0  0  0  0  0  0
    4.8870   58.7710   25.5600 C   0  0  0  0  0  3  0  0  0  0  0  0
    5.6670   59.7550   27.6860 N   0  0  0  0  0  0  0  0  0  0  0  0
    6.1080   61.1330   27.4680 C   0  0  1  0  0  3  0  0  0  0  0  0
    5.0210   62.1760   27.6920 C   0  0  0  0  0  1  0  0  0  0  0  0
    7.1840   61.3880   28.3450 O   0  0  0  0  0  0  0  0  0  0  0  0
    7.8350   60.6720   28.2750 H   0  0  0  0  0  0  0  0  0  0  0  0
    5.5730   59.2750   29.0780 C   0  0  0  0  0  2  0  0  0  0  0  0
    4.1420   58.9090   29.4500 C   0  0  0  0  0  1  0  0  0  0  0  0
    3.4740   56.5600   23.1470 O   0  0  0  0  0  0  0  0  0  0  0  0
    3.7870   55.9680   23.8480 H   0  0  0  0  0  0  0  0  0  0  0  0
  1 30  1  6  0  0  0
  1 17  1  0  0  0  0
  2 10  1  0  0  0  0
  2 13  1  1  0  0  0
  4  6  1  0  0  0  0
  4 11  1  1  0  0  0
  5  3  1  1  0  0  0
  5  8  1  0  0  0  0
  5 10  1  0  0  0  0
  6  1  1  1  0  0  0
  7 15  1  6  0  0  0
  7  2  1  0  0  0  0
  8  6  1  0  0  0  0
  9  3  1  0  0  0  0
  9  7  1  0  0  0  0
 10  4  1  0  0  0  0
 11 12  1  0  0  0  0
 13 14  1  0  0  0  0
 15 16  1  0  0  0  0
 17 20  2  0  0  0  0
 17 22  1  0  0  0  0
 18 19  1  0  0  0  0
 18 23  1  0  0  0  0
 20 21  1  0  0  0  0
 21 19  2  0  0  0  0
 22 18  2  0  0  0  0
 23 28  1  0  0  0  0
 24 23  1  0  0  0  0
 24 25  1  0  0  0  0
 24 26  1  0  0  0  0
 27 26  1  0  0  0  0
 28 29  1  0  0  0  0
 30 31  1  0  0  0  0
M  END
>  <MODEL>
1

>  <REMARK>
 VINA RESULT:      -7.8      0.000      0.000
  Name = 
  13 active torsions:
  status: ('A' for Active; 'I' for Inactive)
    1  A    between atoms: O_1  and  C_6
    2  A    between atoms: C_2  and  O_16
    3  A    between atoms: C_4  and  C_6
    4  A    between atoms: C_5  and  N_25
    5  A    between atoms: C_6  and  C_13
    6  A    between atoms: C_7  and  C_14
    7  A    between atoms: C_9  and  O_18
    8  A    between atoms: C_9  and  C_19
    9  A    between atoms: C_9  and  N_25
   10  A    between atoms: C_10  and  C_15
   11  A    between atoms: C_10  and  N_25
   12  A    between atoms: C_14  and  C_26
   13  A    between atoms: C_20  and  O_22
                            x       y       z     vdW  Elec       q    Type
                         _______ _______ _______ _____ _____    ______ ____

>  <TORSDO>
F 10

$$$$
=
 OpenBabel12172412463D

 31 33  0  0  1  0  0  0  0  0999 V2000
    5.3940   59.3350   22.1110 N   0  0  0  0  0  0  0  0  0  0  0  0
    3.8720   58.2160   20.7600 O   0  0  0  0  0  0  0  0  0  0  0  0
    4.3620   58.4490   21.8600 C   0  0  0  0  0  0  0  0  0  0  0  0
    5.6730   59.4130   23.0520 H   0  0  0  0  0  0  0  0  0  0  0  0
    5.0450   59.0540   26.5910 C   0  0  0  0  0  0  0  0  0  0  0  0
    3.8850   57.7380   23.1380 C   0  0  1  0  0  3  0  0  0  0  0  0
    5.4960   57.2670   24.8340 C   0  0  0  0  0  0  0  0  0  0  0  0
    6.3230   58.5500   27.2130 C   0  0  0  0  0  3  0  0  0  0  0  0
    4.7170   58.4220   25.2540 C   0  0  0  0  0  0  0  0  0  0  0  0
    6.5800   56.8450   25.4930 C   0  0  0  0  0  3  0  0  0  0  0  0
    4.1220   60.1940   27.4270 S   0  0  0  0  0  0  0  0  0  0  0  0
    7.0140   57.5320   26.6820 C   0  0  0  0  0  3  0  0  0  0  0  0
    4.9080   56.6880   23.5890 C   0  0  0  0  0  2  0  0  0  0  0  0
    3.7940   58.7040   24.3120 C   0  0  0  0  0  0  0  0  0  0  0  0
    2.7660   59.7990   24.2560 C   0  0  0  0  0  2  0  0  0  0  0  0
    1.3780   59.3000   24.6320 C   0  0  0  0  0  1  0  0  0  0  0  0
    7.5420   60.5240   19.2820 C   0  0  0  0  0  0  0  0  0  0  0  0
    6.0000   61.5270   21.3740 C   0  0  0  0  0  0  0  0  0  0  0  0
    6.6580   62.4140   20.5300 C   0  0  0  0  0  3  0  0  0  0  0  0
    7.4290   61.9040   19.4850 C   0  0  0  0  0  3  0  0  0  0  0  0
    6.8810   59.6450   20.1450 C   0  0  0  0  0  3  0  0  0  0  0  0
    6.1010   60.1400   21.1930 C   0  0  0  0  0  0  0  0  0  0  0  0
    5.2330   61.9920   22.4140 O   0  0  0  0  0  0  0  0  0  0  0  0
    5.3030   62.8850   22.6850 H   0  0  0  0  0  0  0  0  0  0  0  0
    8.3370   60.1780   18.2250 O   0  0  0  0  0  0  0  0  0  0  0  0
    8.6910   58.7070   16.3410 C   0  0  0  0  0  1  0  0  0  0  0  0
    7.7270   59.6790   17.0220 C   0  0  2  0  0  3  0  0  0  0  0  0
    8.7100   61.7070   15.8290 C   0  0  0  0  0  1  0  0  0  0  0  0
    7.4480   60.8970   16.1090 C   0  0  1  0  0  3  0  0  0  0  0  0
    6.9100   60.4750   14.8520 O   0  0  0  0  0  0  0  0  0  0  0  0
    7.0830   61.1550   14.1820 H   0  0  0  0  0  0  0  0  0  0  0  0
  1  4  1  0  0  0  0
  2  3  2  0  0  0  0
  3  1  1  0  0  0  0
  5  8  1  0  0  0  0
  5 11  2  0  0  0  0
  6  3  1  6  0  0  0
  6 13  1  0  0  0  0
  6 14  1  0  0  0  0
  7  9  1  0  0  0  0
  7 10  2  0  0  0  0
  9  5  1  0  0  0  0
 10 12  1  0  0  0  0
 12  8  2  0  0  0  0
 13  7  1  0  0  0  0
 14  9  2  0  0  0  0
 15 14  1  0  0  0  0
 15 16  1  0  0  0  0
 17 20  2  0  0  0  0
 17 21  1  0  0  0  0
 18 23  1  0  0  0  0
 19 18  2  0  0  0  0
 20 19  1  0  0  0  0
 21 22  2  0  0  0  0
 22 18  1  0  0  0  0
 22  1  1  0  0  0  0
 23 24  1  0  0  0  0
 25 17  1  0  0  0  0
 27 26  1  6  0  0  0
 27 25  1  0  0  0  0
 29 28  1  6  0  0  0
 29 27  1  0  0  0  0
 30 29  1  0  0  0  0
 31 30  1  0  0  0  0
M  END
>  <MODEL>
1

>  <REMARK>
 VINA RESULT:      -8.1      0.000      0.000
  Name = 
  11 active torsions:
  status: ('A' for Active; 'I' for Inactive)
    1  A    between atoms: N_1  and  C_28
    2  A    between atoms: C_4  and  C_21
    3  A    between atoms: C_5  and  O_10
    4  A    between atoms: C_6  and  O_18
    5  A    between atoms: C_8  and  C_19
    6  A    between atoms: C_8  and  C_27
    7  A    between atoms: O_9  and  C_20
    8  A    between atoms: O_10  and  C_24
    9  A    between atoms: C_14  and  C_24
   10  A    between atoms: C_15  and  C_20
   11  A    between atoms: C_20  and  C_24
                            x       y       z     vdW  Elec       q    Type
                         _______ _______ _______ _____ _____    ______ ____

>  <TORSDO>
F 8

$$$$

     RDKit          2D

  1  0  0  0  0  0  0  0  0  0999 V2000
    0.0000    0.0000    0.0000 C   0  0  0  0  0  0  0  0  0  0  0  0
M  END
$$$$

     RDKit          2D

  1  0  0  0  0  0  0  0  0  0999 V2000
    0.0000    0.0000    0.0000 C   0  0  0  0  0  0  0  0  0  0  0  0
M  END
$$$$
=
 OpenBabel12172412473D

 37 38  0  0  1  0  0  0  0  0999 V2000
    4.3270   55.7990   20.2670 N   0  0  0  0  0  0  0  0  0  0  0  0
    5.0910   55.1960   20.1210 H   0  0  0  0  0  0  0  0  0  0  0  0
    4.3840   57.5610   23.5270 C   0  0  0  0  0  3  0  0  0  0  0  0
    4.4350   56.8820   21.1650 C   0  0  0  0  0  0  0  0  0  0  0  0
    4.2310   56.6040   22.5300 C   0  0  0  0  0  0  0  0  0  0  0  0
    4.7760   58.8470   23.1700 C   0  0  0  0  0  3  0  0  0  0  0  0
    4.8700   58.1640   20.8300 C   0  0  0  0  0  3  0  0  0  0  0  0
    5.0150   59.1330   21.8280 C   0  0  0  0  0  0  0  0  0  0  0  0
    3.8530   55.3370   22.8950 O   0  0  0  0  0  0  0  0  0  0  0  0
    2.9690   55.1690   23.1570 H   0  0  0  0  0  0  0  0  0  0  0  0
    5.4990   60.7310   21.3710 S   0  0  0  0  0  0  0  0  0  0  0  0
    5.7760   61.5930   22.6930 O   0  0  0  0  0  0  0  0  0  0  0  0
    5.0430   62.2120   22.8360 H   0  0  0  0  0  0  0  0  0  0  0  0
    4.2740   61.4990   20.6800 O   0  0  0  0  0  0  0  0  0  0  0  0
    3.9530   62.1950   21.2740 H   0  0  0  0  0  0  0  0  0  0  0  0
    6.8060   60.8430   20.3260 N   0  0  0  0  0  0  0  0  0  0  0  0
    7.3690   63.2250   19.6850 C   0  0  0  0  0  1  0  0  0  0  0  0
    7.7460   61.9670   20.4600 C   0  0  0  0  0  2  0  0  0  0  0  0
    7.4150   59.6210   19.7810 C   0  0  0  0  0  2  0  0  0  0  0  0
    7.8930   59.7220   18.3380 C   0  0  0  0  0  1  0  0  0  0  0  0
    3.0720   55.5810   19.5570 C   0  0  2  0  0  3  0  0  0  0  0  0
    0.9770   52.7970   21.1600 C   0  0  1  0  0  0  0  0  0  0  0  0
    1.0580   54.1970   20.5230 C   0  0  2  0  0  3  0  0  0  0  0  0
    2.4130   52.6900   21.7280 C   0  0  1  0  0  3  0  0  0  0  0  0
   -0.0610   54.5670   19.5570 C   0  0  0  0  0  1  0  0  0  0  0  0
    2.9320   51.2960   22.0470 C   0  0  0  0  0  1  0  0  0  0  0  0
    2.4400   54.1860   19.8630 C   0  0  2  0  0  3  0  0  0  0  0  0
    3.3090   53.3600   20.7530 N   0  0  0  0  0  4  0  0  0  0  0  0
    3.8130   52.6640   20.2040 H   0  0  0  0  0  0  0  0  0  0  0  0
    4.0000   53.9390   21.2300 H   0  0  0  0  0  0  0  0  0  0  0  0
    0.0240   52.8010   22.2350 O   0  0  0  0  0  0  0  0  0  0  0  0
   -0.2680   53.7110   22.4060 H   0  0  0  0  0  0  0  0  0  0  0  0
    0.5750   51.6690   20.1860 C   0  0  0  0  0  2  0  0  0  0  0  0
   -0.3860   50.7970   20.7860 O   0  0  0  0  0  0  0  0  0  0  0  0
   -1.2090   50.8190   20.2720 H   0  0  0  0  0  0  0  0  0  0  0  0
    3.4670   55.5810   18.1900 O   0  0  0  0  0  0  0  0  0  0  0  0
    4.3810   55.8950   18.1180 H   0  0  0  0  0  0  0  0  0  0  0  0
  1  4  1  0  0  0  0
  2  1  1  0  0  0  0
  4  5  1  0  0  0  0
  5  9  1  0  0  0  0
  5  3  2  0  0  0  0
  6  3  1  0  0  0  0
  7  4  2  0  0  0  0
  7  8  1  0  0  0  0
  8  6  2  0  0  0  0
  9 10  1  0  0  0  0
 11  8  1  0  0  0  0
 11 12  1  0  0  0  0
 12 13  1  0  0  0  0
 14 15  1  0  0  0  0
 14 11  1  0  0  0  0
 16 18  1  0  0  0  0
 16 11  1  0  0  0  0
 17 18  1  0  0  0  0
 19 16  1  0  0  0  0
 20 19  1  0  0  0  0
 21 36  1  6  0  0  0
 21  1  1  0  0  0  0
 22 33  1  6  0  0  0
 22 24  1  0  0  0  0
 22 31  1  0  0  0  0
 23 25  1  6  0  0  0
 23 22  1  0  0  0  0
 24 26  1  6  0  0  0
 27 21  1  1  0  0  0
 27 23  1  0  0  0  0
 27 28  1  0  0  0  0
 28 30  1  0  0  0  0
 28 24  1  0  0  0  0
 29 28  1  0  0  0  0
 31 32  1  0  0  0  0
 33 34  1  0  0  0  0
 35 34  1  0  0  0  0
 37 36  1  0  0  0  0
M  END
>  <MODEL>
1

>  <REMARK>
 VINA RESULT:      -6.5      0.000      0.000
  Name = 
  18 active torsions:
  status: ('A' for Active; 'I' for Inactive)
    1  A    between atoms: C_1  and  C_2
    2  A    between atoms: C_1  and  O_5
    3  A    between atoms: C_2  and  O_15
    4  A    between atoms: N_3  and  C_8
    5  A    between atoms: N_3  and  C_18
    6  A    between atoms: S_4  and  N_19
    7  A    between atoms: S_4  and  O_20
    8  A    between atoms: S_4  and  O_21
    9  A    between atoms: S_4  and  C_28
   10  A    between atoms: C_7  and  C_24
   11  A    between atoms: C_9  and  C_16
   12  A    between atoms: C_10  and  N_19
   13  A    between atoms: C_10  and  C_25
   14  A    between atoms: C_11  and  O_22
   15  A    between atoms: O_13  and  C_18
   16  A    between atoms: C_14  and  C_17
   17  A    between atoms: C_18  and  C_26
   18  A    between atoms: N_19  and  C_24
                            x       y       z     vdW  Elec       q    Type
                         _______ _______ _______ _____ _____    ______ ____

>  <TORSDO>
F 14

$$$$
=
 OpenBabel12172412483D

 36 39  0  0  1  0  0  0  0  0999 V2000
    2.6340   60.3440   28.3690 C   0  0  0  0  0  2  0  0  0  0  0  0
    3.6160   60.7150   27.2820 C   0  0  0  0  0  0  0  0  0  0  0  0
    2.3010   56.3540   27.3730 S   0  0  0  0  0  0  0  0  0  0  0  0
    2.4250   58.1460   27.1740 C   0  0  1  0  0  3  0  0  0  0  0  0
    4.5010   59.5930   26.7130 C   0  0  1  0  0  3  0  0  0  0  0  0
    2.5200   58.8340   28.5370 C   0  0  0  0  0  2  0  0  0  0  0  0
    3.5220   55.9670   26.3080 O   0  0  0  0  0  0  0  0  0  0  0  0
    3.7080   61.8780   26.8830 O   0  0  0  0  0  0  0  0  0  0  0  0
    2.2490   58.4910   24.3120 O   0  0  0  0  0  0  0  0  0  0  0  0
    4.2060   59.9330   24.3950 C   0  0  1  0  0  3  0  0  0  0  0  0
    4.4360   57.0580   26.0920 C   0  0  1  0  0  3  0  0  0  0  0  0
    3.6570   58.3790   26.2990 C   0  0  1  0  0  0  0  0  0  0  0  0
    3.2480   58.8710   24.9160 C   0  0  0  0  0  0  0  0  0  0  0  0
    5.1940   60.0560   25.4970 N   0  0  0  0  0  4  0  0  0  0  0  0
    6.0100   59.4730   25.3080 H   0  0  0  0  0  0  0  0  0  0  0  0
    5.5260   61.0150   25.5960 H   0  0  0  0  0  0  0  0  0  0  0  0
    4.8060   59.5380   23.0540 C   0  0  0  0  0  0  0  0  0  0  0  0
    4.6360   58.2320   22.6970 N   0  0  0  0  0  0  0  0  0  0  0  0
    5.8140   58.6300   20.6530 C   0  0  0  0  0  3  0  0  0  0  0  0
    5.1300   57.8120   21.5190 C   0  0  0  0  0  3  0  0  0  0  0  0
    5.4500   60.4680   22.2150 C   0  0  0  0  0  0  0  0  0  0  0  0
    5.9960   59.9670   21.0120 C   0  0  0  0  0  0  0  0  0  0  0  0
    6.7770   60.7780   20.0410 C   0  0  0  0  0  0  0  0  0  0  0  0
    8.0100   60.3130   19.6900 N   0  0  0  0  0  0  0  0  0  0  0  0
    6.3070   61.7880   19.5330 O   0  0  0  0  0  0  0  0  0  0  0  0
    8.5620   60.8180   19.0500 H   0  0  0  0  0  0  0  0  0  0  0  0
    8.3480   59.4740   20.0760 H   0  0  0  0  0  0  0  0  0  0  0  0
    5.5260   61.9330   22.5620 C   0  0  0  0  0  2  0  0  0  0  0  0
    4.4570   62.6910   21.9110 N   0  0  0  0  0  4  0  0  0  0  0  0
    4.8470   63.2390   21.1450 H   0  0  0  0  0  0  0  0  0  0  0  0
    4.0220   63.3160   22.5890 H   0  0  0  0  0  0  0  0  0  0  0  0
    3.7570   62.0450   21.5450 H   0  0  0  0  0  0  0  0  0  0  0  0
    5.7230   56.8270   26.9000 C   0  0  0  0  0  0  0  0  0  0  0  0
    6.9060   56.8410   26.2540 C   0  0  0  0  0  2  0  0  0  0  0  0
    5.6010   56.5510   28.3870 C   0  0  0  0  0  2  0  0  0  0  0  0
    5.8900   55.1300   28.8640 C   0  0  0  0  0  1  0  0  0  0  0  0
  1  6  1  0  0  0  0
  2  1  1  0  0  0  0
  4  3  1  0  0  0  0
  4  6  1  1  0  0  0
  5  2  1  6  0  0  0
  7  3  1  0  0  0  0
  8  2  2  0  0  0  0
  9 13  2  0  0  0  0
 10 17  1  6  0  0  0
 10 13  1  0  0  0  0
 10 14  1  0  0  0  0
 11 12  1  0  0  0  0
 11  7  1  0  0  0  0
 11 33  1  1  0  0  0
 12 13  1  6  0  0  0
 12  5  1  0  0  0  0
 12  4  1  0  0  0  0
 14 16  1  0  0  0  0
 14  5  1  0  0  0  0
 15 14  1  0  0  0  0
 18 17  1  0  0  0  0
 19 22  2  0  0  0  0
 19 20  1  0  0  0  0
 20 18  2  0  0  0  0
 21 28  1  0  0  0  0
 21 17  2  0  0  0  0
 22 21  1  0  0  0  0
 23 22  1  0  0  0  0
 24 23  1  0  0  0  0
 24 27  1  0  0  0  0
 25 23  2  0  0  0  0
 26 24  1  0  0  0  0
 29 28  1  0  0  0  0
 29 31  1  0  0  0  0
 30 29  1  0  0  0  0
 32 29  1  0  0  0  0
 33 35  1  0  0  0  0
 34 33  2  0  0  0  0
 35 36  1  0  0  0  0
M  END
>  <MODEL>
1

>  <REMARK>
 VINA RESULT:      -6.4      0.000      0.000
  Name = 
  7 active torsions:
  status: ('A' for Active; 'I' for Inactive)
    1  A    between atoms: C_1  and  C_29
    2  A    between atoms: C_4  and  C_21
    3  A    between atoms: N_5  and  C_15
    4  A    between atoms: C_12  and  C_18
    5  A    between atoms: C_12  and  C_19
    6  A    between atoms: C_15  and  C_25
    7  A    between atoms: C_18  and  C_22
                            x       y       z     vdW  Elec       q    Type
                         _______ _______ _______ _____ _____    ______ ____

>  <TORSDO>
F 6

$$$$
=
 OpenBabel12172412493D

 31 32  0  0  1  0  0  0  0  0999 V2000
    4.2560   59.2570   22.6720 C   0  0  0  0  0  0  0  0  0  0  0  0
    5.2660   60.1890   22.5720 N   0  0  0  0  0  0  0  0  0  0  0  0
    3.7820   58.5870   21.7580 O   0  0  0  0  0  0  0  0  0  0  0  0
    5.5120   60.6380   23.4130 H   0  0  0  0  0  0  0  0  0  0  0  0
    4.4590   59.5190   26.4250 C   0  0  2  0  0  3  0  0  0  0  0  0
    4.9480   58.8850   25.0960 C   0  0  2  0  0  3  0  0  0  0  0  0
    2.6850   61.4100   26.7790 C   0  0  0  0  0  1  0  0  0  0  0  0
    3.1080   60.2960   24.6180 N   0  0  0  0  0  4  0  0  0  0  0  0
    3.0770   60.1190   26.0740 C   0  0  1  0  0  3  0  0  0  0  0  0
    3.7750   59.0660   24.1220 C   0  0  1  0  0  3  0  0  0  0  0  0
    3.6450   61.1260   24.3650 H   0  0  0  0  0  0  0  0  0  0  0  0
    2.1790   60.4260   24.2190 H   0  0  0  0  0  0  0  0  0  0  0  0
    5.3450   57.4050   25.2210 C   0  0  0  0  0  2  0  0  0  0  0  0
    6.6440   57.1950   25.9840 C   0  0  0  0  0  1  0  0  0  0  0  0
    6.1700   60.3510   28.0720 C   0  0  0  0  0  3  0  0  0  0  0  0
    5.4750   60.5090   26.9440 C   0  0  0  0  0  3  0  0  0  0  0  0
    7.0720   61.2840   28.4930 O   0  0  0  0  0  0  0  0  0  0  0  0
    6.8190   62.1840   28.5600 H   0  0  0  0  0  0  0  0  0  0  0  0
    6.6240   59.7060   20.5650 C   0  0  0  0  0  3  0  0  0  0  0  0
    6.0900   61.9700   21.1990 C   0  0  0  0  0  0  0  0  0  0  0  0
    7.3050   60.1990   19.4500 C   0  0  0  0  0  0  0  0  0  0  0  0
    5.9930   60.5900   21.4380 C   0  0  0  0  0  0  0  0  0  0  0  0
    6.8050   62.4670   20.1120 C   0  0  0  0  0  3  0  0  0  0  0  0
    7.4240   61.5730   19.2400 C   0  0  0  0  0  3  0  0  0  0  0  0
    5.4700   62.8290   22.0710 O   0  0  0  0  0  0  0  0  0  0  0  0
    5.8430   63.6720   22.2430 H   0  0  0  0  0  0  0  0  0  0  0  0
    7.9740   59.3540   18.6090 O   0  0  0  0  0  0  0  0  0  0  0  0
    7.6540   58.4790   16.3040 C   0  0  0  0  0  1  0  0  0  0  0  0
    7.9310   59.6870   17.2030 C   0  0  2  0  0  3  0  0  0  0  0  0
    8.7670   61.7990   16.0290 C   0  0  0  0  0  1  0  0  0  0  0  0
    9.1440   60.5200   16.7620 C   0  0  0  0  0  2  0  0  0  0  0  0
  2  1  1  0  0  0  0
  2  4  1  0  0  0  0
  3  1  2  0  0  0  0
  5 16  1  6  0  0  0
  6 13  1  1  0  0  0
  6  5  1  0  0  0  0
  8  9  1  0  0  0  0
  9  5  1  0  0  0  0
  9  7  1  1  0  0  0
 10  1  1  6  0  0  0
 10  8  1  0  0  0  0
 10  6  1  0  0  0  0
 11  8  1  0  0  0  0
 12  8  1  0  0  0  0
 13 14  1  0  0  0  0
 15 17  1  0  0  0  0
 16 15  2  0  0  0  0
 17 18  1  0  0  0  0
 19 22  1  0  0  0  0
 20 22  2  0  0  0  0
 20 25  1  0  0  0  0
 21 19  2  0  0  0  0
 22  2  1  0  0  0  0
 23 20  1  0  0  0  0
 24 21  1  0  0  0  0
 24 23  2  0  0  0  0
 25 26  1  0  0  0  0
 27 21  1  0  0  0  0
 29 28  1  6  0  0  0
 29 27  1  0  0  0  0
 30 31  1  0  0  0  0
 31 29  1  0  0  0  0
M  END
>  <MODEL>
1

>  <REMARK>
 VINA RESULT:      -7.3      0.000      0.000
  Name = 
  13 active torsions:
  status: ('A' for Active; 'I' for Inactive)
    1  A    between atoms: C_1  and  C_25
    2  A    between atoms: N_2  and  C_22
    3  A    between atoms: C_3  and  C_26
    4  A    between atoms: C_5  and  C_9
    5  A    between atoms: C_6  and  C_20
    6  A    between atoms: C_7  and  C_21
    7  A    between atoms: C_9  and  C_19
    8  A    between atoms: C_10  and  O_16
    9  A    between atoms: C_11  and  C_17
   10  A    between atoms: C_12  and  O_15
   11  A    between atoms: C_13  and  O_18
   12  A    between atoms: C_17  and  C_20
   13  A    between atoms: O_18  and  C_20
                            x       y       z     vdW  Elec       q    Type
                         _______ _______ _______ _____ _____    ______ ____

>  <TORSDO>
F 9

$$$$
=
 OpenBabel12172412503D

 41 43  0  0  1  0  0  0  0  0999 V2000
    3.9890   56.1310   21.4970 C   0  0  0  0  0  0  0  0  0  0  0  0
    3.0450   55.4890   18.9180 C   0  0  0  0  0  3  0  0  0  0  0  0
    4.3610   56.8840   20.3640 C   0  0  0  0  0  0  0  0  0  0  0  0
    3.1600   55.0230   21.3050 C   0  0  0  0  0  3  0  0  0  0  0  0
    3.8910   56.5800   19.0860 C   0  0  0  0  0  3  0  0  0  0  0  0
    2.6920   54.7200   20.0250 C   0  0  0  0  0  0  0  0  0  0  0  0
    4.5670   56.4670   22.7420 N   0  0  0  0  0  0  0  0  0  0  0  0
    5.4710   56.1590   22.9790 H   0  0  0  0  0  0  0  0  0  0  0  0
    3.7950   57.2740   23.6560 C   0  0  2  0  0  3  0  0  0  0  0  0
    4.5410   58.5760   24.0440 C   0  0  2  0  0  3  0  0  0  0  0  0
    3.3710   62.5760   26.0870 C   0  0  1  0  0  3  0  0  0  0  0  0
    5.2890   61.0640   24.8250 C   0  0  0  0  0  2  0  0  0  0  0  0
    4.8090   58.7310   25.6290 C   0  0  2  0  0  3  0  0  0  0  0  0
    4.1790   61.3190   27.2250 S   0  0  0  0  0  0  0  0  0  0  0  0
    4.6530   62.0690   22.6200 C   0  0  0  0  0  1  0  0  0  0  0  0
    3.0410   62.1090   24.6090 C   0  0  0  0  0  2  0  0  0  0  0  0
    4.5810   60.2150   25.8850 C   0  0  1  0  0  3  0  0  0  0  0  0
    4.1650   61.2820   23.8390 C   0  0  2  0  0  0  0  0  0  0  0  0
    3.7050   59.8160   23.4030 C   0  0  0  0  0  2  0  0  0  0  0  0
    6.1520   58.2350   26.2430 C   0  0  0  0  0  3  0  0  0  0  0  0
    6.7140   56.9180   25.7070 C   0  0  0  0  0  1  0  0  0  0  0  0
    6.0750   58.1640   27.7740 C   0  0  0  0  0  1  0  0  0  0  0  0
    2.1700   63.0110   26.7050 O   0  0  0  0  0  0  0  0  0  0  0  0
    2.3690   63.3600   27.5870 H   0  0  0  0  0  0  0  0  0  0  0  0
    3.5830   56.4910   24.8070 O   0  0  0  0  0  0  0  0  0  0  0  0
    3.8650   55.5790   24.6350 H   0  0  0  0  0  0  0  0  0  0  0  0
    5.1870   57.9640   20.5630 O   0  0  0  0  0  0  0  0  0  0  0  0
    5.3530   58.2740   21.4320 H   0  0  0  0  0  0  0  0  0  0  0  0
    1.6390   53.3630   19.7910 S   0  0  0  0  0  0  0  0  0  0  0  0
    0.5530   53.3480   20.9720 O   0  0  0  0  0  0  0  0  0  0  0  0
   -0.3220   53.1550   20.6030 H   0  0  0  0  0  0  0  0  0  0  0  0
    0.7560   53.5660   18.4700 O   0  0  0  0  0  0  0  0  0  0  0  0
    0.7090   52.7300   17.9810 H   0  0  0  0  0  0  0  0  0  0  0  0
    2.3860   51.8620   19.6770 N   0  0  0  0  0  0  0  0  0  0  0  0
    4.3270   50.4610   20.5000 C   0  0  0  0  0  1  0  0  0  0  0  0
    3.1220   51.3330   20.8370 C   0  0  0  0  0  2  0  0  0  0  0  0
    1.7780   50.8180   18.8680 C   0  0  0  0  0  2  0  0  0  0  0  0
    0.3740   50.6930   19.2050 N   0  0  0  0  0  4  0  0  0  0  0  0
   -0.1940   51.0830   18.4520 H   0  0  0  0  0  0  0  0  0  0  0  0
    0.1860   51.2000   20.0700 H   0  0  0  0  0  0  0  0  0  0  0  0
    0.1400   49.7080   19.3310 H   0  0  0  0  0  0  0  0  0  0  0  0
  1  7  1  0  0  0  0
  2  5  2  0  0  0  0
  2  6  1  0  0  0  0
  3 27  1  0  0  0  0
  3  1  2  0  0  0  0
  4  1  1  0  0  0  0
  5  3  1  0  0  0  0
  6  4  2  0  0  0  0
  7  8  1  0  0  0  0
  7  9  1  0  0  0  0
  9 25  1  1  0  0  0
 10  9  1  1  0  0  0
 10 13  1  0  0  0  0
 11 23  1  1  0  0  0
 11 14  1  0  0  0  0
 13 17  1  0  0  0  0
 13 20  1  6  0  0  0
 16 11  1  0  0  0  0
 17 12  1  1  0  0  0
 17 14  1  0  0  0  0
 18 15  1  6  0  0  0
 18 16  1  0  0  0  0
 18 12  1  0  0  0  0
 19 18  1  0  0  0  0
 19 10  1  0  0  0  0
 20 22  1  0  0  0  0
 21 20  1  0  0  0  0
 23 24  1  0  0  0  0
 26 25  1  0  0  0  0
 27 28  1  0  0  0  0
 29  6  1  0  0  0  0
 29 30  1  0  0  0  0
 31 30  1  0  0  0  0
 32 29  1  0  0  0  0
 33 32  1  0  0  0  0
 34 29  1  0  0  0  0
 34 36  1  0  0  0  0
 35 36  1  0  0  0  0
 37 38  1  0  0  0  0
 37 34  1  0  0  0  0
 38 41  1  0  0  0  0
 38 40  1  0  0  0  0
 39 38  1  0  0  0  0
M  END
>  <MODEL>
1

>  <REMARK>
 VINA RESULT:      -6.7      0.000      0.000
  Name = 
  18 active torsions:
  status: ('A' for Active; 'I' for Inactive)
    1  A    between atoms: N_1  and  S_7
    2  A    between atoms: N_1  and  C_29
    3  A    between atoms: N_1  and  C_30
    4  A    between atoms: C_2  and  N_23
    5  A    between atoms: C_3  and  C_8
    6  A    between atoms: C_5  and  O_24
    7  A    between atoms: C_6  and  O_14
    8  A    between atoms: S_7  and  O_19
    9  A    between atoms: S_7  and  C_22
   10  A    between atoms: S_7  and  O_27
   11  A    between atoms: C_8  and  O_20
   12  A    between atoms: C_8  and  N_23
   13  A    between atoms: C_10  and  C_13
   14  A    between atoms: C_12  and  C_30
   15  A    between atoms: C_13  and  C_25
   16  A    between atoms: C_13  and  C_28
   17  A    between atoms: N_16  and  C_29
   18  A    between atoms: C_17  and  C_31
                            x       y       z     vdW  Elec       q    Type
                         _______ _______ _______ _____ _____    ______ ____

>  <TORSDO>
F 14

$$$$
=
 OpenBabel12172412513D

 34 35  0  0  1  0  0  0  0  0999 V2000
    6.0820   59.3830   20.6420 C   0  0  0  0  0  0  0  0  0  0  0  0
    6.0690   58.0870   21.1220 N   0  0  0  0  0  0  0  0  0  0  0  0
    5.1470   60.1800   20.6740 O   0  0  0  0  0  0  0  0  0  0  0  0
    6.9190   57.5960   21.0530 H   0  0  0  0  0  0  0  0  0  0  0  0
    7.8850   58.7000   19.0680 N   0  0  0  0  0  4  0  0  0  0  0  0
    8.0230   60.7120   17.8560 C   0  0  1  0  0  3  0  0  0  0  0  0
    7.3230   61.0660   19.1810 C   0  0  1  0  0  3  0  0  0  0  0  0
    7.6690   59.2270   17.7150 C   0  0  1  0  0  3  0  0  0  0  0  0
    7.4400   59.7680   20.0070 C   0  0  1  0  0  3  0  0  0  0  0  0
    8.5280   58.4790   16.7080 C   0  0  0  0  0  1  0  0  0  0  0  0
    8.8730   58.4920   19.2130 H   0  0  0  0  0  0  0  0  0  0  0  0
    7.3670   57.8350   19.2170 H   0  0  0  0  0  0  0  0  0  0  0  0
    7.3970   63.6080   19.5890 C   0  0  0  0  0  2  0  0  0  0  0  0
    7.8540   62.3620   19.7640 C   0  0  0  0  0  3  0  0  0  0  0  0
    7.4650   61.4970   16.8020 O   0  0  0  0  0  0  0  0  0  0  0  0
    8.4500   61.9870   15.9140 C   0  0  0  0  0  2  0  0  0  0  0  0
    7.8200   62.3100   14.6940 O   0  0  0  0  0  0  0  0  0  0  0  0
    7.0340   62.8500   14.8680 H   0  0  0  0  0  0  0  0  0  0  0  0
    4.5560   57.8130   22.9700 C   0  0  0  0  0  0  0  0  0  0  0  0
    4.3870   56.2680   21.0990 C   0  0  0  0  0  3  0  0  0  0  0  0
    3.0290   55.9370   23.0750 C   0  0  0  0  0  3  0  0  0  0  0  0
    3.4130   55.5450   21.7940 C   0  0  0  0  0  0  0  0  0  0  0  0
    3.6110   57.0570   23.6690 C   0  0  0  0  0  3  0  0  0  0  0  0
    4.9930   57.3750   21.6980 C   0  0  0  0  0  0  0  0  0  0  0  0
    5.1470   58.9410   23.5880 N   0  0  0  0  0  0  0  0  0  0  0  0
    5.0330   59.0890   24.5550 H   0  0  0  0  0  0  0  0  0  0  0  0
    5.6710   59.5780   23.0510 H   0  0  0  0  0  0  0  0  0  0  0  0
    2.7650   54.4440   21.2810 O   0  0  0  0  0  0  0  0  0  0  0  0
    3.7630   53.5340   20.7400 O   0  0  0  0  0  0  0  0  0  0  0  0
    3.1270   52.3800   20.1220 N   0  0  0  0  0  0  0  0  0  0  0  0
    1.7020   52.7180   20.0320 C   0  0  0  0  0  2  0  0  0  0  0  0
    0.7180   51.7180   20.6370 C   0  0  0  0  0  1  0  0  0  0  0  0
    4.2230   50.1530   20.3000 C   0  0  0  0  0  1  0  0  0  0  0  0
    3.4550   51.2620   21.0090 C   0  0  0  0  0  2  0  0  0  0  0  0
  1  3  2  0  0  0  0
  1  2  1  0  0  0  0
  2 24  1  0  0  0  0
  4  2  1  0  0  0  0
  5 11  1  0  0  0  0
  5 12  1  0  0  0  0
  5  9  1  0  0  0  0
  6 15  1  6  0  0  0
  6  7  1  0  0  0  0
  7 14  1  1  0  0  0
  7  9  1  0  0  0  0
  8 10  1  6  0  0  0
  8  6  1  0  0  0  0
  8  5  1  0  0  0  0
  9  1  1  6  0  0  0
 13 14  2  0  0  0  0
 16 15  1  0  0  0  0
 17 18  1  0  0  0  0
 17 16  1  0  0  0  0
 19 25  1  0  0  0  0
 19 23  1  0  0  0  0
 20 24  1  0  0  0  0
 20 22  2  0  0  0  0
 21 23  2  0  0  0  0
 22 21  1  0  0  0  0
 24 19  2  0  0  0  0
 25 26  1  0  0  0  0
 27 25  1  0  0  0  0
 28 22  1  0  0  0  0
 29 28  1  0  0  0  0
 30 29  1  0  0  0  0
 30 34  1  0  0  0  0
 31 30  1  0  0  0  0
 31 32  1  0  0  0  0
 33 34  1  0  0  0  0
M  END
>  <MODEL>
1

>  <REMARK>
 VINA RESULT:      -6.9      0.000      0.000
  Name = 
  15 active torsions:
  status: ('A' for Active; 'I' for Inactive)
    1  A    between atoms: C_1  and  C_17
    2  A    between atoms: N_3  and  C_25
    3  A    between atoms: O_4  and  C_6
    4  A    between atoms: O_4  and  C_15
    5  A    between atoms: C_5  and  N_23
    6  A    between atoms: O_7  and  N_11
    7  A    between atoms: O_7  and  O_22
    8  A    between atoms: C_9  and  N_11
    9  A    between atoms: C_9  and  C_26
   10  A    between atoms: C_10  and  C_28
   11  A    between atoms: N_11  and  C_20
   12  A    between atoms: O_13  and  C_15
   13  A    between atoms: C_14  and  C_21
   14  A    between atoms: C_16  and  C_20
   15  A    between atoms: C_19  and  O_22
                            x       y       z     vdW  Elec       q    Type
                         _______ _______ _______ _____ _____    ______ ____

>  <TORSDO>
F 12

$$$$
=
 OpenBabel12172412513D

 35 35  0  0  1  0  0  0  0  0999 V2000
    5.1090   60.8500   23.9240 C   0  0  2  0  0  3  0  0  0  0  0  0
    5.3680   61.7640   26.3590 C   0  0  1  0  0  3  0  0  0  0  0  0
    3.2090   61.7060   25.2770 N   0  0  0  0  0  4  0  0  0  0  0  0
    2.2340   63.8870   25.8830 C   0  0  0  0  0  1  0  0  0  0  0  0
    4.4930   60.9570   25.3590 C   0  0  1  0  0  3  0  0  0  0  0  0
    4.4130   62.8710   26.9050 C   0  0  2  0  0  0  0  0  0  0  0  0
    3.5070   63.0810   25.6730 C   0  0  1  0  0  3  0  0  0  0  0  0
    2.5220   61.2990   25.9090 H   0  0  0  0  0  0  0  0  0  0  0  0
    2.8190   61.6700   24.3350 H   0  0  0  0  0  0  0  0  0  0  0  0
    5.1600   64.0610   27.2100 O   0  0  0  0  0  0  0  0  0  0  0  0
    4.5920   64.6860   27.6860 H   0  0  0  0  0  0  0  0  0  0  0  0
    6.0540   60.8670   27.3970 C   0  0  0  0  0  2  0  0  0  0  0  0
    5.5910   59.4180   27.3290 C   0  0  0  0  0  1  0  0  0  0  0  0
    3.6120   62.4960   28.1760 C   0  0  0  0  0  2  0  0  0  0  0  0
    3.7200   63.5230   29.1660 O   0  0  0  0  0  0  0  0  0  0  0  0
    2.8680   63.9770   29.2560 H   0  0  0  0  0  0  0  0  0  0  0  0
    5.8640   62.0550   23.6520 O   0  0  0  0  0  0  0  0  0  0  0  0
    6.1890   62.4290   24.4860 H   0  0  0  0  0  0  0  0  0  0  0  0
    4.1640   60.5340   22.7150 C   0  0  1  0  0  3  0  0  0  0  0  0
    4.6800   61.2460   21.4480 C   0  0  0  0  0  0  0  0  0  0  0  0
    5.6540   60.9390   20.5700 C   0  0  0  0  0  3  0  0  0  0  0  0
    3.9130   62.3820   21.1790 O   0  0  0  0  0  0  0  0  0  0  0  0
    3.9980   63.1440   21.7190 H   0  0  0  0  0  0  0  0  0  0  0  0
    7.7260   60.0790   19.4720 C   0  0  0  0  0  1  0  0  0  0  0  0
    6.6420   59.8090   20.5060 C   0  0  0  0  0  2  0  0  0  0  0  0
    3.6800   59.0600   22.5430 C   0  0  0  0  0  2  0  0  0  0  0  0
    4.5540   57.8870   22.7400 N   0  0  0  0  0  4  0  0  0  0  0  0
    5.4710   58.3260   22.8250 H   0  0  0  0  0  0  0  0  0  0  0  0
    4.4100   57.1860   24.0120 C   0  0  0  0  0  2  0  0  0  0  0  0
    5.7480   56.9360   24.7040 C   0  0  0  0  0  1  0  0  0  0  0  0
    4.6950   57.0000   21.5690 C   0  0  1  0  0  3  0  0  0  0  0  0
    4.1400   55.5860   21.7140 C   0  0  0  0  0  1  0  0  0  0  0  0
    4.0490   57.5940   20.4240 O   0  0  0  0  0  0  0  0  0  0  0  0
    4.4270   56.7680   19.2720 O   0  0  0  0  0  0  0  0  0  0  0  0
    4.5220   55.8450   19.5530 H   0  0  0  0  0  0  0  0  0  0  0  0
  1 17  1  6  0  0  0
  2  6  1  0  0  0  0
  2 12  1  1  0  0  0
  3  5  1  0  0  0  0
  3  7  1  0  0  0  0
  3  8  1  0  0  0  0
  5  1  1  6  0  0  0
  5  2  1  0  0  0  0
  6 10  1  0  0  0  0
  6 14  1  1  0  0  0
  7  4  1  1  0  0  0
  7  6  1  0  0  0  0
  9  3  1  0  0  0  0
 10 11  1  0  0  0  0
 13 12  1  0  0  0  0
 14 15  1  0  0  0  0
 15 16  1  0  0  0  0
 17 18  1  0  0  0  0
 19 26  1  6  0  0  0
 19  1  1  0  0  0  0
 20 19  1  0  0  0  0
 21 20  2  0  0  0  0
 22 20  1  0  0  0  0
 22 23  1  0  0  0  0
 24 25  1  0  0  0  0
 25 21  1  0  0  0  0
 26 27  1  0  0  0  0
 27 28  1  0  0  0  0
 27 29  1  0  0  0  0
 29 30  1  0  0  0  0
 31 32  1  1  0  0  0
 31 27  1  0  0  0  0
 33 31  1  0  0  0  0
 34 35  1  0  0  0  0
 34 33  1  0  0  0  0
M  END
>  <MODEL>
1

>  <REMARK>
 VINA RESULT:      -5.7      0.000      0.000
  Name = 
  21 active torsions:
  status: ('A' for Active; 'I' for Inactive)
    1  A    between atoms: C_1  and  C_4
    2  A    between atoms: C_1  and  O_12
    3  A    between atoms: C_1  and  C_20
    4  A    between atoms: C_2  and  C_4
    5  A    between atoms: C_2  and  O_22
    6  A    between atoms: C_3  and  C_14
    7  A    between atoms: C_4  and  C_21
    8  A    between atoms: C_5  and  C_24
    9  A    between atoms: C_7  and  C_24
   10  A    between atoms: C_8  and  C_15
   11  A    between atoms: C_8  and  O_17
   12  A    between atoms: C_8  and  N_27
   13  A    between atoms: O_9  and  C_19
   14  A    between atoms: O_10  and  O_17
   15  A    between atoms: C_11  and  C_16
   16  A    between atoms: C_11  and  N_27
   17  A    between atoms: C_13  and  C_26
   18  A    between atoms: C_14  and  C_23
   19  A    between atoms: O_18  and  C_25
   20  A    between atoms: C_19  and  C_25
   21  A    between atoms: C_21  and  N_27
                            x       y       z     vdW  Elec       q    Type
                         _______ _______ _______ _____ _____    ______ ____

>  <TORSDO>
F 16

$$$$
=
 OpenBabel12172412523D

 32 34  0  0  1  0  0  0  0  0999 V2000
    4.9860   59.7910   22.9380 C   0  0  0  0  0  0  0  0  0  0  0  0
    4.6290   58.5560   23.4400 N   0  0  0  0  0  0  0  0  0  0  0  0
    5.3810   60.7490   23.6000 O   0  0  0  0  0  0  0  0  0  0  0  0
    4.3470   57.8850   22.7760 H   0  0  0  0  0  0  0  0  0  0  0  0
    7.3360   61.9360   19.6020 C   0  0  0  0  0  0  0  0  0  0  0  0
    5.8130   58.9570   20.7430 N   0  0  0  0  0  4  0  0  0  0  0  0
    7.3300   59.6920   18.9410 C   0  0  0  0  0  2  0  0  0  0  0  0
    5.1830   61.2490   20.8020 C   0  0  2  0  0  3  0  0  0  0  0  0
    7.2690   63.1480   19.4250 O   0  0  0  0  0  0  0  0  0  0  0  0
    4.6380   62.4620   21.5450 C   0  0  0  0  0  1  0  0  0  0  0  0
    4.8410   59.8790   21.3950 C   0  0  2  0  0  3  0  0  0  0  0  0
    7.0140   59.7440   20.4370 C   0  0  1  0  0  3  0  0  0  0  0  0
    8.0780   60.9880   18.6740 C   0  0  1  0  0  3  0  0  0  0  0  0
    6.7010   61.2080   20.7580 C   0  0  1  0  0  3  0  0  0  0  0  0
    5.4140   58.5790   19.8840 H   0  0  0  0  0  0  0  0  0  0  0  0
    6.0380   58.1720   21.3550 H   0  0  0  0  0  0  0  0  0  0  0  0
    8.0240   61.3450   17.3130 O   0  0  0  0  0  0  0  0  0  0  0  0
    8.8550   61.0960   16.8800 H   0  0  0  0  0  0  0  0  0  0  0  0
    5.0220   58.3490   27.1370 C   0  0  0  0  0  0  0  0  0  0  0  0
    4.0870   56.8650   25.0390 C   0  0  0  0  0  0  0  0  0  0  0  0
    5.0960   58.8850   25.8540 C   0  0  0  0  0  3  0  0  0  0  0  0
    4.0520   56.4070   26.3440 C   0  0  0  0  0  3  0  0  0  0  0  0
    4.5060   57.1220   27.3930 N   0  0  0  0  0  0  0  0  0  0  0  0
    4.6190   58.1310   24.7860 C   0  0  0  0  0  0  0  0  0  0  0  0
    3.6170   56.1240   23.9880 O   0  0  0  0  0  0  0  0  0  0  0  0
    4.1860   55.5230   23.5470 H   0  0  0  0  0  0  0  0  0  0  0  0
    5.6430   59.3180   28.5110 S   0  0  0  0  0  0  0  0  0  0  0  0
    6.6590   60.3630   27.6970 O   0  0  0  0  0  0  0  0  0  0  0  0
    6.5880   61.7360   28.1030 C   0  0  2  0  0  3  0  0  0  0  0  0
    6.0970   61.7290   29.5490 C   0  0  0  0  0  1  0  0  0  0  0  0
    5.6350   62.4920   27.1660 C   0  0  0  0  0  2  0  0  0  0  0  0
    4.7750   63.5300   27.8700 C   0  0  0  0  0  1  0  0  0  0  0  0
  1  2  1  0  0  0  0
  1  3  2  0  0  0  0
  2 24  1  0  0  0  0
  4  2  1  0  0  0  0
  6 16  1  0  0  0  0
  6 11  1  0  0  0  0
  8 11  1  0  0  0  0
  8 10  1  1  0  0  0
  9  5  2  0  0  0  0
 11  1  1  1  0  0  0
 12  7  1  6  0  0  0
 12  6  1  0  0  0  0
 12 14  1  0  0  0  0
 13 17  1  6  0  0  0
 13  7  1  0  0  0  0
 13  5  1  0  0  0  0
 14  5  1  6  0  0  0
 14  8  1  0  0  0  0
 15  6  1  0  0  0  0
 18 17  1  0  0  0  0
 19 23  1  0  0  0  0
 19 27  1  0  0  0  0
 20 22  1  0  0  0  0
 21 19  2  0  0  0  0
 22 23  2  0  0  0  0
 24 20  2  0  0  0  0
 24 21  1  0  0  0  0
 25 20  1  0  0  0  0
 26 25  1  0  0  0  0
 28 29  1  0  0  0  0
 28 27  1  0  0  0  0
 29 30  1  1  0  0  0
 31 32  1  0  0  0  0
 31 29  1  0  0  0  0
M  END
>  <MODEL>
1

>  <REMARK>
 VINA RESULT:      -7.1      0.000      0.000
  Name = 
  11 active torsions:
  status: ('A' for Active; 'I' for Inactive)
    1  A    between atoms: C_4  and  C_17
    2  A    between atoms: C_5  and  S_8
    3  A    between atoms: C_6  and  C_10
    4  A    between atoms: C_6  and  C_13
    5  A    between atoms: C_7  and  O_19
    6  A    between atoms: S_8  and  O_23
    7  A    between atoms: N_9  and  C_25
    8  A    between atoms: C_10  and  C_21
    9  A    between atoms: C_10  and  O_23
   10  A    between atoms: C_11  and  C_16
   11  A    between atoms: O_18  and  C_26
                            x       y       z     vdW  Elec       q    Type
                         _______ _______ _______ _____ _____    ______ ____

>  <TORSDO>
F 8

$$$$
=
 OpenBabel12172412533D

 34 35  0  0  1  0  0  0  0  0999 V2000
    5.0110   57.9230   20.9370 C   0  0  0  0  0  0  0  0  0  0  0  0
    4.3330   57.7470   19.9290 O   0  0  0  0  0  0  0  0  0  0  0  0
    4.8900   57.2120   22.1200 N   0  0  0  0  0  0  0  0  0  0  0  0
    5.5040   57.4780   22.8430 H   0  0  0  0  0  0  0  0  0  0  0  0
    6.0830   59.0380   21.0510 C   0  0  1  0  0  3  0  0  0  0  0  0
    6.8970   59.8640   18.9920 C   0  0  1  0  0  3  0  0  0  0  0  0
    8.1070   60.0160   18.0860 C   0  0  0  0  0  1  0  0  0  0  0  0
    7.1530   58.8620   20.0370 N   0  0  0  0  0  4  0  0  0  0  0  0
    5.4530   60.4160   20.7760 C   0  0  2  0  0  3  0  0  0  0  0  0
    6.4190   61.1040   19.7740 C   0  0  1  0  0  3  0  0  0  0  0  0
    7.1160   57.9230   19.6430 H   0  0  0  0  0  0  0  0  0  0  0  0
    8.0790   58.9840   20.4490 H   0  0  0  0  0  0  0  0  0  0  0  0
    4.2330   62.5200   21.7340 C   0  0  0  0  0  1  0  0  0  0  0  0
    4.9790   61.2180   21.9990 C   0  0  0  0  0  2  0  0  0  0  0  0
    7.5200   61.9630   20.4230 C   0  0  0  0  0  2  0  0  0  0  0  0
    7.5520   63.4080   19.9230 C   0  0  0  0  0  2  0  0  0  0  0  0
    7.9390   63.4220   18.5540 O   0  0  0  0  0  0  0  0  0  0  0  0
    7.4950   62.6990   18.0840 H   0  0  0  0  0  0  0  0  0  0  0  0
    4.0050   56.1590   22.4260 C   0  0  0  0  0  0  0  0  0  0  0  0
    2.1930   54.1770   23.2250 C   0  0  0  0  0  3  0  0  0  0  0  0
    3.3570   56.2330   23.6670 C   0  0  0  0  0  0  0  0  0  0  0  0
    2.8390   54.0570   21.9790 C   0  0  0  0  0  0  0  0  0  0  0  0
    2.4540   55.2560   24.0710 C   0  0  0  0  0  3  0  0  0  0  0  0
    3.7360   55.0770   21.5880 C   0  0  0  0  0  3  0  0  0  0  0  0
    2.5300   52.8810   21.0260 C   0  0  1  0  0  0  0  0  0  0  0  0
    1.7230   51.8630   21.8580 C   0  0  0  0  0  1  0  0  0  0  0  0
    1.5200   52.2330   18.8630 C   0  0  0  0  0  1  0  0  0  0  0  0
    0.5960   54.0710   20.0780 C   0  0  0  0  0  1  0  0  0  0  0  0
    1.8170   53.3110   19.8090 N   0  0  0  0  0  4  0  0  0  0  0  0
    2.4930   53.9320   19.3640 H   0  0  0  0  0  0  0  0  0  0  0  0
    3.7400   52.2200   20.6620 O   0  0  0  0  0  0  0  0  0  0  0  0
    4.3160   52.1490   21.4400 H   0  0  0  0  0  0  0  0  0  0  0  0
    3.6300   57.3070   24.4790 O   0  0  0  0  0  0  0  0  0  0  0  0
    2.9740   57.6310   25.0650 H   0  0  0  0  0  0  0  0  0  0  0  0
  1  3  1  0  0  0  0
  2  1  2  0  0  0  0
  3 19  1  0  0  0  0
  3  4  1  0  0  0  0
  5  1  1  6  0  0  0
  6  7  1  1  0  0  0
  6 10  1  0  0  0  0
  6  8  1  0  0  0  0
  8 12  1  0  0  0  0
  8  5  1  0  0  0  0
  9  5  1  0  0  0  0
  9 14  1  1  0  0  0
 10 15  1  1  0  0  0
 10  9  1  0  0  0  0
 11  8  1  0  0  0  0
 13 14  1  0  0  0  0
 16 15  1  0  0  0  0
 17 16  1  0  0  0  0
 18 17  1  0  0  0  0
 19 21  1  0  0  0  0
 20 23  1  0  0  0  0
 21 23  2  0  0  0  0
 21 33  1  0  0  0  0
 22 20  2  0  0  0  0
 24 22  1  0  0  0  0
 24 19  2  0  0  0  0
 25 26  1  1  0  0  0
 25 22  1  0  0  0  0
 27 29  1  0  0  0  0
 29 28  1  0  0  0  0
 29 25  1  0  0  0  0
 30 29  1  0  0  0  0
 31 25  1  0  0  0  0
 31 32  1  0  0  0  0
 33 34  1  0  0  0  0
M  END
>  <MODEL>
1

>  <REMARK>
 VINA RESULT:      -6.9      0.000      0.000
  Name = 
  15 active torsions:
  status: ('A' for Active; 'I' for Inactive)
    1  A    between atoms: C_1  and  C_2
    2  A    between atoms: C_3  and  N_15
    3  A    between atoms: C_4  and  C_9
    4  A    between atoms: C_4  and  O_11
    5  A    between atoms: C_4  and  C_12
    6  A    between atoms: C_4  and  N_20
    7  A    between atoms: C_5  and  N_20
    8  A    between atoms: C_7  and  O_22
    9  A    between atoms: C_8  and  C_18
   10  A    between atoms: C_10  and  O_17
   11  A    between atoms: C_10  and  C_23
   12  A    between atoms: C_14  and  N_20
   13  A    between atoms: C_16  and  C_25
   14  A    between atoms: C_23  and  C_27
   15  A    between atoms: C_25  and  C_26
                            x       y       z     vdW  Elec       q    Type
                         _______ _______ _______ _____ _____    ______ ____

>  <TORSDO>
F 10

$$$$

     RDKit          2D

  1  0  0  0  0  0  0  0  0  0999 V2000
    0.0000    0.0000    0.0000 C   0  0  0  0  0  0  0  0  0  0  0  0
M  END
$$$$

     RDKit          2D

  1  0  0  0  0  0  0  0  0  0999 V2000
    0.0000    0.0000    0.0000 C   0  0  0  0  0  0  0  0  0  0  0  0
M  END
$$$$
=
 OpenBabel12172412533D

 31 31  0  0  1  0  0  0  0  0999 V2000
    5.7100   61.6800   21.6170 C   0  0  0  0  0  0  0  0  0  0  0  0
    7.1910   60.1620   19.8680 C   0  0  0  0  0  0  0  0  0  0  0  0
    7.3280   61.5130   19.8220 N   0  0  0  0  0  0  0  0  0  0  0  0
    6.3090   59.5320   20.7450 C   0  0  0  0  0  3  0  0  0  0  0  0
    6.5910   62.2350   20.6980 C   0  0  0  0  0  3  0  0  0  0  0  0
    5.5300   60.2970   21.6330 C   0  0  0  0  0  0  0  0  0  0  0  0
    5.0550   62.5340   22.4540 O   0  0  0  0  0  0  0  0  0  0  0  0
    4.3910   62.2090   23.0300 H   0  0  0  0  0  0  0  0  0  0  0  0
    8.0190   59.3520   18.8870 C   0  0  0  0  0  2  0  0  0  0  0  0
    7.9650   59.7690   17.4790 N   0  0  0  0  0  4  0  0  0  0  0  0
    7.1180   60.3350   17.4200 H   0  0  0  0  0  0  0  0  0  0  0  0
    8.8130   57.9360   15.9050 C   0  0  0  0  0  1  0  0  0  0  0  0
    7.6440   58.7250   16.5050 C   0  0  1  0  0  3  0  0  0  0  0  0
    6.6930   57.7980   17.0130 O   0  0  0  0  0  0  0  0  0  0  0  0
    6.3360   57.2680   16.2840 H   0  0  0  0  0  0  0  0  0  0  0  0
    9.0380   60.6880   17.1060 C   0  0  0  0  0  2  0  0  0  0  0  0
    8.5600   61.8300   16.2140 C   0  0  0  0  0  1  0  0  0  0  0  0
    4.5460   59.6080   22.5550 C   0  0  1  0  0  3  0  0  0  0  0  0
    3.3780   60.4100   22.6890 O   0  0  0  0  0  0  0  0  0  0  0  0
    2.6550   60.0150   22.1770 H   0  0  0  0  0  0  0  0  0  0  0  0
    4.1810   58.2100   22.0280 C   0  0  0  0  0  2  0  0  0  0  0  0
    4.0270   57.0740   23.0860 C   0  0  2  0  0  0  0  0  0  0  0  0
    2.8130   54.9940   22.7590 O   0  0  0  0  0  0  0  0  0  0  0  0
    3.5690   55.8460   22.2750 C   0  0  0  0  0  0  0  0  0  0  0  0
    4.1280   55.6420   20.8670 C   0  0  0  0  0  2  0  0  0  0  0  0
    3.8070   54.3490   20.3670 O   0  0  0  0  0  0  0  0  0  0  0  0
    2.8820   54.1450   20.5740 H   0  0  0  0  0  0  0  0  0  0  0  0
    2.1980   57.7510   24.9330 C   0  0  0  0  0  3  0  0  0  0  0  0
    3.0160   57.4530   24.1060 C   0  0  0  0  0  0  0  0  0  0  0  0
    5.3740   56.7480   23.7880 C   0  0  0  0  0  2  0  0  0  0  0  0
    5.5390   57.3540   25.1820 C   0  0  0  0  0  1  0  0  0  0  0  0
  1  6  1  0  0  0  0
  1  7  1  0  0  0  0
  2  4  1  0  0  0  0
  3  2  2  0  0  0  0
  3  5  1  0  0  0  0
  4  6  2  0  0  0  0
  5  1  2  0  0  0  0
  6 18  1  0  0  0  0
  7  8  1  0  0  0  0
  9  2  1  0  0  0  0
 10  9  1  0  0  0  0
 11 10  1  0  0  0  0
 13 12  1  1  0  0  0
 13 14  1  0  0  0  0
 13 10  1  0  0  0  0
 15 14  1  0  0  0  0
 16 10  1  0  0  0  0
 17 16  1  0  0  0  0
 18 21  1  6  0  0  0
 18 19  1  0  0  0  0
 20 19  1  0  0  0  0
 22 21  1  6  0  0  0
 22 30  1  0  0  0  0
 22 29  1  0  0  0  0
 24 23  2  0  0  0  0
 24 22  1  0  0  0  0
 25 24  1  0  0  0  0
 26 27  1  0  0  0  0
 26 25  1  0  0  0  0
 29 28  3  0  0  0  0
 30 31  1  0  0  0  0
M  END
>  <MODEL>
1

>  <REMARK>
 VINA RESULT:      -6.0      0.000      0.000
  Name = 
  18 active torsions:
  status: ('A' for Active; 'I' for Inactive)
    1  A    between atoms: C_1  and  O_22
    2  A    between atoms: C_2  and  C_17
    3  A    between atoms: C_2  and  C_20
    4  A    between atoms: C_2  and  C_21
    5  A    between atoms: C_2  and  C_25
    6  A    between atoms: C_3  and  C_8
    7  A    between atoms: O_4  and  C_13
    8  A    between atoms: O_5  and  C_14
    9  A    between atoms: C_6  and  C_13
   10  A    between atoms: C_8  and  N_12
   11  A    between atoms: C_10  and  N_12
   12  A    between atoms: C_10  and  C_24
   13  A    between atoms: N_12  and  C_13
   14  A    between atoms: C_14  and  C_21
   15  A    between atoms: C_17  and  C_26
   16  A    between atoms: C_18  and  C_26
   17  A    between atoms: O_19  and  C_26
   18  A    between atoms: C_20  and  C_23
                            x       y       z     vdW  Elec       q    Type
                         _______ _______ _______ _____ _____    ______ ____

>  <TORSDO>
F 15

$$$$

     RDKit          2D

  1  0  0  0  0  0  0  0  0  0999 V2000
    0.0000    0.0000    0.0000 C   0  0  0  0  0  0  0  0  0  0  0  0
M  END
$$$$
=
 OpenBabel12172412543D

 33 35  0  0  1  0  0  0  0  0999 V2000
    4.5320   58.2250   20.9490 C   0  0  0  0  0  0  0  0  0  0  0  0
    3.4830   58.8640   20.8920 O   0  0  0  0  0  0  0  0  0  0  0  0
    4.6780   56.8760   20.6980 N   0  0  0  0  0  0  0  0  0  0  0  0
    5.5940   56.5240   20.7710 H   0  0  0  0  0  0  0  0  0  0  0  0
    5.6930   60.4530   21.4570 C   0  0  1  0  0  3  0  0  0  0  0  0
    8.1230   60.2190   18.6040 C   0  0  0  0  0  2  0  0  0  0  0  0
    6.8560   60.9930   20.6210 C   0  0  1  0  0  3  0  0  0  0  0  0
    7.9250   62.7050   19.1450 C   0  0  2  0  0  3  0  0  0  0  0  0
    6.8960   59.9900   19.4750 C   0  0  2  0  0  3  0  0  0  0  0  0
    8.0910   61.6460   18.0460 C   0  0  0  0  0  2  0  0  0  0  0  0
    6.8610   58.7180   20.1890 N   0  0  0  0  0  4  0  0  0  0  0  0
    5.8710   58.9170   21.3000 C   0  0  2  0  0  3  0  0  0  0  0  0
    6.7390   62.4110   20.0750 C   0  0  0  0  0  2  0  0  0  0  0  0
    7.7810   58.4930   20.5650 H   0  0  0  0  0  0  0  0  0  0  0  0
    6.5960   57.9460   19.5770 H   0  0  0  0  0  0  0  0  0  0  0  0
    7.7360   63.9730   18.5280 O   0  0  0  0  0  0  0  0  0  0  0  0
    6.8870   63.9820   18.0600 H   0  0  0  0  0  0  0  0  0  0  0  0
    4.8280   60.7740   23.8520 C   0  0  0  0  0  2  0  0  0  0  0  0
    5.6600   61.0580   22.8420 C   0  0  0  0  0  3  0  0  0  0  0  0
    2.5210   54.8290   18.5150 C   0  0  0  0  0  3  0  0  0  0  0  0
    3.4700   55.7370   18.9770 C   0  0  0  0  0  0  0  0  0  0  0  0
    2.9290   55.2080   21.2680 C   0  0  0  0  0  3  0  0  0  0  0  0
    3.6850   55.9370   20.3500 C   0  0  0  0  0  0  0  0  0  0  0  0
    1.7680   54.1100   19.4410 C   0  0  0  0  0  3  0  0  0  0  0  0
    1.9610   54.3050   20.8110 C   0  0  0  0  0  0  0  0  0  0  0  0
    4.2270   56.4630   18.0900 O   0  0  0  0  0  0  0  0  0  0  0  0
    4.0100   57.3570   17.9110 H   0  0  0  0  0  0  0  0  0  0  0  0
    1.1790   53.5350   21.6400 O   0  0  0  0  0  0  0  0  0  0  0  0
    1.1250   52.1790   21.1010 O   0  0  0  0  0  0  0  0  0  0  0  0
    1.3770   51.8860   23.5090 C   0  0  0  0  0  1  0  0  0  0  0  0
    1.5940   51.2900   22.1200 C   0  0  2  0  0  3  0  0  0  0  0  0
    3.4430   50.8810   20.4270 C   0  0  0  0  0  1  0  0  0  0  0  0
    3.0510   50.8620   21.8980 C   0  0  0  0  0  2  0  0  0  0  0  0
  2  1  2  0  0  0  0
  3  4  1  0  0  0  0
  3  1  1  0  0  0  0
  5 19  1  1  0  0  0
  7 13  1  6  0  0  0
  7  5  1  0  0  0  0
  8 16  1  6  0  0  0
  8 13  1  0  0  0  0
  9  6  1  1  0  0  0
  9 11  1  0  0  0  0
  9  7  1  0  0  0  0
 10  6  1  0  0  0  0
 10  8  1  0  0  0  0
 11 14  1  0  0  0  0
 11 12  1  0  0  0  0
 12  1  1  6  0  0  0
 12  5  1  0  0  0  0
 15 11  1  0  0  0  0
 17 16  1  0  0  0  0
 19 18  2  0  0  0  0
 20 21  2  0  0  0  0
 20 24  1  0  0  0  0
 21 23  1  0  0  0  0
 23  3  1  0  0  0  0
 23 22  2  0  0  0  0
 24 25  2  0  0  0  0
 25 22  1  0  0  0  0
 25 28  1  0  0  0  0
 26 21  1  0  0  0  0
 27 26  1  0  0  0  0
 29 28  1  0  0  0  0
 29 31  1  0  0  0  0
 31 30  1  1  0  0  0
 32 33  1  0  0  0  0
 33 31  1  0  0  0  0
M  END
>  <MODEL>
1

>  <REMARK>
 VINA RESULT:      -7.5      0.000      0.000
  Name = 
  11 active torsions:
  status: ('A' for Active; 'I' for Inactive)
    1  A    between atoms: C_1  and  C_27
    2  A    between atoms: C_2  and  C_19
    3  A    between atoms: C_4  and  C_7
    4  A    between atoms: C_6  and  O_22
    5  A    between atoms: C_7  and  C_16
    6  A    between atoms: C_10  and  O_14
    7  A    between atoms: C_12  and  N_23
    8  A    between atoms: C_13  and  C_16
    9  A    between atoms: C_16  and  O_24
   10  A    between atoms: O_20  and  O_24
   11  A    between atoms: O_20  and  C_26
                            x       y       z     vdW  Elec       q    Type
                         _______ _______ _______ _____ _____    ______ ____

>  <TORSDO>
F 9

$$$$
=
 OpenBabel12172412553D

 33 34  0  0  1  0  0  0  0  0999 V2000
    6.9690   62.8650   20.0990 C   0  0  0  0  0  3  0  0  0  0  0  0
    7.7050   60.8640   18.9240 C   0  0  0  0  0  0  0  0  0  0  0  0
    6.3440   62.0640   21.0500 C   0  0  0  0  0  0  0  0  0  0  0  0
    7.0590   60.0740   19.8950 C   0  0  0  0  0  3  0  0  0  0  0  0
    7.6460   62.2620   19.0390 C   0  0  0  0  0  3  0  0  0  0  0  0
    6.3800   60.6650   20.9600 C   0  0  0  0  0  0  0  0  0  0  0  0
    3.5910   59.6450   21.0860 O   0  0  0  0  0  0  0  0  0  0  0  0
    5.7100   59.9520   21.9750 N   0  0  0  0  0  0  0  0  0  0  0  0
    4.4080   59.5060   21.9930 C   0  0  0  0  0  0  0  0  0  0  0  0
    6.2430   59.7470   22.7770 H   0  0  0  0  0  0  0  0  0  0  0  0
    4.2550   56.5670   24.3990 C   0  0  2  0  0  3  0  0  0  0  0  0
    5.0180   58.8670   24.4160 C   0  0  0  0  0  2  0  0  0  0  0  0
    5.4940   57.4410   24.7030 C   0  0  1  0  0  3  0  0  0  0  0  0
    4.3710   56.5600   21.8560 C   0  0  0  0  0  1  0  0  0  0  0  0
    6.1390   57.3230   26.0720 C   0  0  0  0  0  1  0  0  0  0  0  0
    4.0150   58.7380   23.2580 C   0  0  2  0  0  3  0  0  0  0  0  0
    3.7360   57.2250   23.0820 C   0  0  2  0  0  3  0  0  0  0  0  0
    2.8480   55.1010   25.9940 C   0  0  0  0  0  1  0  0  0  0  0  0
    3.1660   56.5130   25.5040 C   0  0  2  0  0  3  0  0  0  0  0  0
    1.9340   57.0330   24.9950 O   0  0  0  0  0  0  0  0  0  0  0  0
    1.5040   56.3620   24.4410 H   0  0  0  0  0  0  0  0  0  0  0  0
    5.6690   62.6310   22.1040 O   0  0  0  0  0  0  0  0  0  0  0  0
    6.1130   62.7920   22.9120 H   0  0  0  0  0  0  0  0  0  0  0  0
    8.4350   60.1850   17.7790 C   0  0  2  0  0  3  0  0  0  0  0  0
    9.3250   61.0880   17.1180 O   0  0  0  0  0  0  0  0  0  0  0  0
   10.1340   60.6170   16.8640 H   0  0  0  0  0  0  0  0  0  0  0  0
    8.2740   58.2190   16.2240 C   0  0  0  0  0  1  0  0  0  0  0  0
    7.5290   59.4560   16.7560 C   0  0  2  0  0  3  0  0  0  0  0  0
    7.0910   60.3080   15.5470 C   0  0  0  0  0  2  0  0  0  0  0  0
    6.3680   59.5540   14.5260 N   0  0  0  0  0  4  0  0  0  0  0  0
    6.5110   58.5550   14.6760 H   0  0  0  0  0  0  0  0  0  0  0  0
    6.7160   59.8130   13.6030 H   0  0  0  0  0  0  0  0  0  0  0  0
    5.3720   59.7690   14.5870 H   0  0  0  0  0  0  0  0  0  0  0  0
  1  3  1  0  0  0  0
  2  5  1  0  0  0  0
  2  4  2  0  0  0  0
  3 22  1  0  0  0  0
  4  6  1  0  0  0  0
  5  1  2  0  0  0  0
  6  3  2  0  0  0  0
  6  8  1  0  0  0  0
  7  9  2  0  0  0  0
  8  9  1  0  0  0  0
  8 10  1  0  0  0  0
 11 13  1  0  0  0  0
 11 19  1  1  0  0  0
 12 13  1  0  0  0  0
 13 15  1  1  0  0  0
 16  9  1  6  0  0  0
 16 12  1  0  0  0  0
 17 14  1  6  0  0  0
 17 16  1  0  0  0  0
 17 11  1  0  0  0  0
 19 18  1  6  0  0  0
 20 19  1  0  0  0  0
 21 20  1  0  0  0  0
 22 23  1  0  0  0  0
 24 25  1  6  0  0  0
 24  2  1  0  0  0  0
 26 25  1  0  0  0  0
 28 27  1  6  0  0  0
 28 24  1  0  0  0  0
 29 28  1  0  0  0  0
 30 33  1  0  0  0  0
 30 31  1  0  0  0  0
 30 29  1  0  0  0  0
 32 30  1  0  0  0  0
M  END
>  <MODEL>
1

>  <REMARK>
 VINA RESULT:      -7.3      0.000      0.000
  Name = 
  14 active torsions:
  status: ('A' for Active; 'I' for Inactive)
    1  A    between atoms: C_3  and  C_24
    2  A    between atoms: C_4  and  C_9
    3  A    between atoms: N_5  and  C_21
    4  A    between atoms: O_6  and  C_9
    5  A    between atoms: O_7  and  C_24
    6  A    between atoms: C_9  and  C_17
    7  A    between atoms: C_10  and  C_17
    8  A    between atoms: C_10  and  N_18
    9  A    between atoms: C_11  and  O_20
   10  A    between atoms: C_12  and  C_16
   11  A    between atoms: C_13  and  C_17
   12  A    between atoms: C_14  and  C_26
   13  A    between atoms: C_22  and  C_25
   14  A    between atoms: C_23  and  C_24
                            x       y       z     vdW  Elec       q    Type
                         _______ _______ _______ _____ _____    ______ ____

>  <TORSDO>
F 10

$$$$
=
 OpenBabel12172412553D

 30 31  0  0  1  0  0  0  0  0999 V2000
    4.2600   58.7830   21.8820 C   0  0  0  0  0  0  0  0  0  0  0  0
    3.9460   58.3730   20.7660 O   0  0  0  0  0  0  0  0  0  0  0  0
    5.1420   59.8080   22.1540 N   0  0  0  0  0  0  0  0  0  0  0  0
    5.2590   60.0330   23.1070 H   0  0  0  0  0  0  0  0  0  0  0  0
    3.2330   59.2550   24.1930 C   0  0  1  0  0  3  0  0  0  0  0  0
    5.2460   58.1620   24.8890 C   0  0  1  0  0  3  0  0  0  0  0  0
    4.6220   57.3200   23.8610 N   0  0  0  0  0  4  0  0  0  0  0  0
    4.0490   58.9120   25.4590 C   0  0  1  0  0  3  0  0  0  0  0  0
    3.6320   58.1770   23.1670 C   0  0  2  0  0  3  0  0  0  0  0  0
    5.9780   57.2890   25.8980 C   0  0  0  0  0  1  0  0  0  0  0  0
    4.1570   56.5220   24.2940 H   0  0  0  0  0  0  0  0  0  0  0  0
    5.3170   56.9530   23.2100 H   0  0  0  0  0  0  0  0  0  0  0  0
    4.8400   60.1750   27.3880 O   0  0  0  0  0  0  0  0  0  0  0  0
    4.4920   60.1480   26.2140 C   0  0  0  0  0  0  0  0  0  0  0  0
    5.3890   61.7840   24.7180 O   0  0  0  0  0  0  0  0  0  0  0  0
    4.4820   61.4630   25.4680 C   0  0  0  0  0  3  0  0  0  0  0  0
    1.7190   59.3800   24.4390 C   0  0  0  0  0  2  0  0  0  0  0  0
    1.1280   58.4730   25.5110 C   0  0  0  0  0  1  0  0  0  0  0  0
    5.6880   61.9610   21.2740 C   0  0  0  0  0  0  0  0  0  0  0  0
    5.8990   60.5760   21.2470 C   0  0  0  0  0  0  0  0  0  0  0  0
    7.5360   60.9020   19.4820 C   0  0  0  0  0  0  0  0  0  0  0  0
    6.3840   62.8150   20.4220 C   0  0  0  0  0  3  0  0  0  0  0  0
    6.8270   60.0550   20.3460 C   0  0  0  0  0  3  0  0  0  0  0  0
    7.3100   62.2800   19.5240 C   0  0  0  0  0  3  0  0  0  0  0  0
    4.7730   62.4620   22.1670 O   0  0  0  0  0  0  0  0  0  0  0  0
    4.7840   63.3720   22.3880 H   0  0  0  0  0  0  0  0  0  0  0  0
    8.4140   60.2600   18.6520 O   0  0  0  0  0  0  0  0  0  0  0  0
    8.5920   60.7970   17.3410 C   0  0  0  0  0  2  0  0  0  0  0  0
    7.7380   59.9740   16.3810 C   0  0  0  0  0  2  0  0  0  0  0  0
    7.9250   58.4820   16.5950 C   0  0  0  0  0  1  0  0  0  0  0  0
  1  3  1  0  0  0  0
  2  1  2  0  0  0  0
  3  4  1  0  0  0  0
  5 17  1  1  0  0  0
  5  8  1  0  0  0  0
  6  8  1  0  0  0  0
  6 10  1  1  0  0  0
  7 11  1  0  0  0  0
  7  6  1  0  0  0  0
  8 14  1  6  0  0  0
  9  1  1  6  0  0  0
  9  7  1  0  0  0  0
  9  5  1  0  0  0  0
 12  7  1  0  0  0  0
 14 13  2  0  0  0  0
 15 16  2  0  0  0  0
 16 14  1  0  0  0  0
 17 18  1  0  0  0  0
 19 25  1  0  0  0  0
 20 19  1  0  0  0  0
 20  3  1  0  0  0  0
 21 24  2  0  0  0  0
 21 23  1  0  0  0  0
 22 19  2  0  0  0  0
 23 20  2  0  0  0  0
 24 22  1  0  0  0  0
 25 26  1  0  0  0  0
 27 21  1  0  0  0  0
 28 27  1  0  0  0  0
 29 30  1  0  0  0  0
 29 28  1  0  0  0  0
M  END
>  <MODEL>
1

>  <REMARK>
 VINA RESULT:      -6.6      0.000      0.000
  Name = 
  12 active torsions:
  status: ('A' for Active; 'I' for Inactive)
    1  A    between atoms: C_1  and  C_16
    2  A    between atoms: C_2  and  C_12
    3  A    between atoms: C_3  and  O_13
    4  A    between atoms: C_5  and  N_23
    5  A    between atoms: C_6  and  C_20
    6  A    between atoms: C_8  and  O_22
    7  A    between atoms: C_10  and  C_14
    8  A    between atoms: C_10  and  C_21
    9  A    between atoms: C_12  and  C_18
   10  A    between atoms: C_14  and  O_22
   11  A    between atoms: C_15  and  C_26
   12  A    between atoms: C_24  and  C_26
                            x       y       z     vdW  Elec       q    Type
                         _______ _______ _______ _____ _____    ______ ____

>  <TORSDO>
F 9

$$$$
=
 OpenBabel12172412563D

 33 35  0  0  1  0  0  0  0  0999 V2000
    2.4680   55.4460   19.3070 C   0  0  0  0  0  0  0  0  0  0  0  0
    1.0060   54.0750   18.1490 C   0  0  0  0  0  3  0  0  0  0  0  0
    2.9370   56.6830   19.4840 N   0  0  0  0  0  0  0  0  0  0  0  0
    2.3610   53.0970   19.8080 C   0  0  0  0  0  0  0  0  0  0  0  0
    2.9370   54.3620   20.0680 C   0  0  0  0  0  0  0  0  0  0  0  0
    1.3840   52.9470   18.8360 C   0  0  0  0  0  3  0  0  0  0  0  0
    3.9360   54.6300   21.0270 C   0  0  0  0  0  3  0  0  0  0  0  0
    1.5270   55.2970   18.3740 N   0  0  0  0  0  0  0  0  0  0  0  0
    3.8810   56.9320   20.4250 C   0  0  0  0  0  0  0  0  0  0  0  0
    4.4160   55.9200   21.2040 C   0  0  0  0  0  3  0  0  0  0  0  0
    4.0820   59.1040   21.8510 C   0  0  1  0  0  3  0  0  0  0  0  0
    5.0670   60.2850   21.7290 C   0  0  2  0  0  0  0  0  0  0  0  0
    7.1240   60.5070   20.1400 C   0  0  0  0  0  1  0  0  0  0  0  0
    4.3720   58.3610   20.5320 C   0  0  1  0  0  3  0  0  0  0  0  0
    6.2820   59.6240   21.0490 C   0  0  2  0  0  3  0  0  0  0  0  0
    5.7910   58.5040   20.2890 O   0  0  0  0  0  0  0  0  0  0  0  0
    2.9330   58.0790   23.9960 C   0  0  0  0  0  1  0  0  0  0  0  0
    4.1860   58.2670   23.1520 C   0  0  0  0  0  2  0  0  0  0  0  0
    5.3980   60.8700   22.9960 O   0  0  0  0  0  0  0  0  0  0  0  0
    4.8580   60.4630   23.6910 H   0  0  0  0  0  0  0  0  0  0  0  0
    4.4560   61.4420   20.9010 C   0  0  0  0  0  2  0  0  0  0  0  0
    4.3740   62.6220   21.7020 O   0  0  0  0  0  0  0  0  0  0  0  0
    4.0260   63.3530   21.1670 H   0  0  0  0  0  0  0  0  0  0  0  0
    2.8160   51.6770   20.6970 S   0  0  0  0  0  0  0  0  0  0  0  0
    4.3960   51.4330   20.5600 O   0  0  0  0  0  0  0  0  0  0  0  0
    4.7290   51.0120   21.3680 H   0  0  0  0  0  0  0  0  0  0  0  0
    2.6330   51.9340   22.2670 O   0  0  0  0  0  0  0  0  0  0  0  0
    3.4960   52.1240   22.6670 H   0  0  0  0  0  0  0  0  0  0  0  0
    2.0800   50.2400   20.2470 N   0  0  0  0  0  0  0  0  0  0  0  0
    1.1610   49.5630   21.1740 C   0  0  0  0  0  2  0  0  0  0  0  0
   -0.2820   50.0510   21.1260 C   0  0  0  0  0  1  0  0  0  0  0  0
    2.2230   49.4000   17.8700 C   0  0  0  0  0  1  0  0  0  0  0  0
    2.7470   49.3320   19.3010 C   0  0  0  0  0  2  0  0  0  0  0  0
  1  3  2  0  0  0  0
  1  5  1  0  0  0  0
  2  8  2  0  0  0  0
  2  6  1  0  0  0  0
  3  9  1  0  0  0  0
  4  5  1  0  0  0  0
  4 24  1  0  0  0  0
  5  7  2  0  0  0  0
  6  4  2  0  0  0  0
  7 10  1  0  0  0  0
  8  1  1  0  0  0  0
  9 10  2  0  0  0  0
 11 18  1  1  0  0  0
 12 21  1  6  0  0  0
 12 11  1  0  0  0  0
 12 19  1  0  0  0  0
 14  9  1  1  0  0  0
 14 11  1  0  0  0  0
 15 13  1  6  0  0  0
 15 12  1  0  0  0  0
 16 14  1  0  0  0  0
 16 15  1  0  0  0  0
 18 17  1  0  0  0  0
 19 20  1  0  0  0  0
 21 22  1  0  0  0  0
 23 22  1  0  0  0  0
 24 27  1  0  0  0  0
 25 24  1  0  0  0  0
 25 26  1  0  0  0  0
 27 28  1  0  0  0  0
 29 24  1  0  0  0  0
 29 30  1  0  0  0  0
 31 30  1  0  0  0  0
 32 33  1  0  0  0  0
 33 29  1  0  0  0  0
M  END
>  <MODEL>
1

>  <REMARK>
 VINA RESULT:      -6.4      0.000      0.000
  Name = 
  15 active torsions:
  status: ('A' for Active; 'I' for Inactive)
    1  A    between atoms: C_2  and  C_17
    2  A    between atoms: C_3  and  N_11
    3  A    between atoms: C_3  and  C_22
    4  A    between atoms: C_4  and  C_5
    5  A    between atoms: C_4  and  O_21
    6  A    between atoms: C_5  and  O_8
    7  A    between atoms: C_7  and  C_18
    8  A    between atoms: C_9  and  C_17
    9  A    between atoms: C_10  and  C_28
   10  A    between atoms: N_11  and  S_14
   11  A    between atoms: N_11  and  C_25
   12  A    between atoms: C_13  and  S_14
   13  A    between atoms: S_14  and  O_15
   14  A    between atoms: S_14  and  O_20
   15  A    between atoms: C_19  and  C_25
                            x       y       z     vdW  Elec       q    Type
                         _______ _______ _______ _____ _____    ______ ____

>  <TORSDO>
F 11

$$$$
=
 OpenBabel12172412573D

 34 35  0  0  1  0  0  0  0  0999 V2000
    4.7620   57.1630   24.9910 C   0  0  0  0  0  0  0  0  0  0  0  0
    3.6850   57.0190   24.1420 N   0  0  0  0  0  0  0  0  0  0  0  0
    5.9230   56.8460   24.7660 O   0  0  0  0  0  0  0  0  0  0  0  0
    2.8260   57.3270   24.5130 H   0  0  0  0  0  0  0  0  0  0  0  0
    5.2820   57.3080   27.3990 N   0  0  0  0  0  4  0  0  0  0  0  0
    4.3470   57.8170   26.3380 C   0  0  1  0  0  3  0  0  0  0  0  0
    5.7980   59.5910   27.0670 C   0  0  1  0  0  3  0  0  0  0  0  0
    5.8540   58.4710   28.1050 C   0  0  1  0  0  3  0  0  0  0  0  0
    4.4460   59.3510   26.3910 C   0  0  1  0  0  3  0  0  0  0  0  0
    5.0940   58.7270   29.4100 C   0  0  0  0  0  1  0  0  0  0  0  0
    6.0300   56.7630   26.9680 H   0  0  0  0  0  0  0  0  0  0  0  0
    4.7800   56.7090   28.0550 H   0  0  0  0  0  0  0  0  0  0  0  0
    5.0590   61.7760   27.8140 O   0  0  0  0  0  0  0  0  0  0  0  0
    7.2160   61.2020   28.1190 O   0  0  0  0  0  1  0  0  0  0  0  0
    5.9580   60.9600   27.6880 C   0  0  0  0  0  0  0  0  0  0  0  0
    4.2800   60.1130   25.0700 C   0  0  0  0  0  2  0  0  0  0  0  0
    2.8340   60.5090   24.8040 C   0  0  0  0  0  1  0  0  0  0  0  0
    2.9640   55.2480   22.7490 C   0  0  0  0  0  0  0  0  0  0  0  0
    4.0240   56.3020   20.4600 C   0  0  0  0  0  0  0  0  0  0  0  0
    2.8440   54.5310   21.5680 C   0  0  0  0  0  3  0  0  0  0  0  0
    3.6090   56.5050   22.8270 C   0  0  0  0  0  0  0  0  0  0  0  0
    3.3720   55.0710   20.4090 C   0  0  0  0  0  3  0  0  0  0  0  0
    4.1670   57.0570   21.6550 C   0  0  0  0  0  0  0  0  0  0  0  0
    4.5720   56.7190   19.2720 O   0  0  0  0  0  0  0  0  0  0  0  0
    4.4890   57.6140   19.0060 H   0  0  0  0  0  0  0  0  0  0  0  0
    3.9530   59.5120   21.2460 C   0  0  0  0  0  1  0  0  0  0  0  0
    4.9280   58.3810   21.6070 C   0  0  2  0  0  3  0  0  0  0  0  0
    6.0500   58.2840   20.6320 N   0  0  0  0  0  4  0  0  0  0  0  0
    5.6680   57.9640   19.7410 H   0  0  0  0  0  0  0  0  0  0  0  0
    6.7260   57.6370   21.0380 H   0  0  0  0  0  0  0  0  0  0  0  0
    7.6760   59.5100   19.1640 C   0  0  0  0  0  1  0  0  0  0  0  0
    6.7770   59.5350   20.3910 C   0  0  0  0  0  2  0  0  0  0  0  0
    2.3680   54.7070   23.8650 O   0  0  0  0  0  0  0  0  0  0  0  0
    1.4850   54.3980   23.8220 H   0  0  0  0  0  0  0  0  0  0  0  0
  2  4  1  0  0  0  0
  2  1  1  0  0  0  0
  3  1  2  0  0  0  0
  5 12  1  0  0  0  0
  5  8  1  0  0  0  0
  6  1  1  6  0  0  0
  6  9  1  0  0  0  0
  6  5  1  0  0  0  0
  7 15  1  1  0  0  0
  7  8  1  0  0  0  0
  8 10  1  1  0  0  0
  9 16  1  6  0  0  0
  9  7  1  0  0  0  0
 11  5  1  0  0  0  0
 15 13  2  0  0  0  0
 15 14  1  0  0  0  0
 17 16  1  0  0  0  0
 18 21  1  0  0  0  0
 18 33  1  0  0  0  0
 19 23  1  0  0  0  0
 20 18  2  0  0  0  0
 21  2  1  0  0  0  0
 22 19  2  0  0  0  0
 22 20  1  0  0  0  0
 23 21  2  0  0  0  0
 24 19  1  0  0  0  0
 25 24  1  0  0  0  0
 27 26  1  6  0  0  0
 27 23  1  0  0  0  0
 28 30  1  0  0  0  0
 28 27  1  0  0  0  0
 29 28  1  0  0  0  0
 31 32  1  0  0  0  0
 32 28  1  0  0  0  0
 34 33  1  0  0  0  0
M  END
>  <MODEL>
1

>  <REMARK>
 VINA RESULT:      -6.7      0.000      0.000
  Name = 
  13 active torsions:
  status: ('A' for Active; 'I' for Inactive)
    1  A    between atoms: C_1  and  C_11
    2  A    between atoms: C_3  and  O_23
    3  A    between atoms: C_4  and  O_19
    4  A    between atoms: N_5  and  C_25
    5  A    between atoms: N_5  and  C_27
    6  A    between atoms: N_6  and  C_14
    7  A    between atoms: C_10  and  C_17
    8  A    between atoms: C_10  and  C_26
    9  A    between atoms: C_12  and  C_20
   10  A    between atoms: C_13  and  C_27
   11  A    between atoms: C_15  and  C_18
   12  A    between atoms: C_22  and  C_25
   13  A    between atoms: C_24  and  C_25
                            x       y       z     vdW  Elec       q    Type
                         _______ _______ _______ _____ _____    ______ ____

>  <TORSDO>
F 9

$$$$

     RDKit          2D

  1  0  0  0  0  0  0  0  0  0999 V2000
    0.0000    0.0000    0.0000 C   0  0  0  0  0  0  0  0  0  0  0  0
M  END
$$$$
=
 OpenBabel12172412573D

 37 38  0  0  1  0  0  0  0  0999 V2000
    4.4920   57.1900   21.1240 C   0  0  0  0  0  0  0  0  0  0  0  0
    3.4160   55.6800   19.5950 C   0  0  0  0  0  3  0  0  0  0  0  0
    3.1610   55.3750   21.9820 C   0  0  0  0  0  3  0  0  0  0  0  0
    2.8660   54.9520   20.6670 C   0  0  0  0  0  0  0  0  0  0  0  0
    3.9620   56.4930   22.2170 C   0  0  0  0  0  0  0  0  0  0  0  0
    4.2280   56.7940   19.8180 C   0  0  0  0  0  3  0  0  0  0  0  0
    3.5500   57.8160   24.3160 C   0  0  0  0  0  0  0  0  0  0  0  0
    2.4610   58.3050   24.0290 O   0  0  0  0  0  0  0  0  0  0  0  0
    4.2920   56.9830   23.4970 N   0  0  0  0  0  0  0  0  0  0  0  0
    5.1620   56.6950   23.8540 H   0  0  0  0  0  0  0  0  0  0  0  0
    4.2650   58.0890   25.6580 C   0  0  2  0  0  3  0  0  0  0  0  0
    5.8270   57.3560   27.2360 C   0  0  1  0  0  3  0  0  0  0  0  0
    5.4220   59.0840   25.5520 C   0  0  2  0  0  3  0  0  0  0  0  0
    6.2950   58.7480   26.7820 C   0  0  1  0  0  3  0  0  0  0  0  0
    5.0120   60.5430   25.4000 C   0  0  0  0  0  1  0  0  0  0  0  0
    4.9800   56.8890   26.1420 N   0  0  0  0  0  4  0  0  0  0  0  0
    6.9830   56.3910   27.4660 C   0  0  0  0  0  1  0  0  0  0  0  0
    5.5480   56.4890   25.3960 H   0  0  0  0  0  0  0  0  0  0  0  0
    4.3340   56.1600   26.4470 H   0  0  0  0  0  0  0  0  0  0  0  0
    6.1560   59.7120   27.9470 C   0  0  0  0  0  0  0  0  0  0  0  0
    6.8710   60.7100   28.0720 O   0  0  0  0  0  0  0  0  0  0  0  0
    5.0490   59.4220   28.9520 C   0  0  0  0  0  2  0  0  0  0  0  0
    5.5640   59.2170   30.2580 O   0  0  0  0  0  0  0  0  0  0  0  0
    6.1290   59.9670   30.5040 H   0  0  0  0  0  0  0  0  0  0  0  0
    5.2860   58.2820   21.3750 O   0  0  0  0  0  0  0  0  0  0  0  0
    6.1840   58.2800   21.1070 H   0  0  0  0  0  0  0  0  0  0  0  0
    1.9790   53.7310   20.4300 C   0  0  0  0  0  0  0  0  0  0  0  0
    2.1760   52.5930   21.3150 N   0  0  0  0  0  4  0  0  0  0  0  0
    3.0040   52.8600   21.8500 H   0  0  0  0  0  0  0  0  0  0  0  0
    4.0850   50.9740   20.7370 C   0  0  0  0  0  1  0  0  0  0  0  0
    2.6060   51.3510   20.6590 C   0  0  0  0  0  2  0  0  0  0  0  0
    1.1450   52.4290   22.3440 C   0  0  0  0  0  2  0  0  0  0  0  0
    1.7140   52.4940   23.7600 C   0  0  0  0  0  1  0  0  0  0  0  0
    0.6210   54.1000   20.5320 O   0  0  0  0  0  0  0  0  0  0  0  0
    0.3900   54.9650   20.8070 H   0  0  0  0  0  0  0  0  0  0  0  0
    2.0770   53.3330   19.0760 O   0  0  0  0  0  0  0  0  0  0  0  0
    2.7950   52.7990   18.7960 H   0  0  0  0  0  0  0  0  0  0  0  0
  1 25  1  0  0  0  0
  1  5  1  0  0  0  0
  2  6  1  0  0  0  0
  2  4  2  0  0  0  0
  3  5  2  0  0  0  0
  4  3  1  0  0  0  0
  5  9  1  0  0  0  0
  6  1  2  0  0  0  0
  8  7  2  0  0  0  0
  9 10  1  0  0  0  0
  9  7  1  0  0  0  0
 11  7  1  6  0  0  0
 11 16  1  0  0  0  0
 12 17  1  6  0  0  0
 13 15  1  1  0  0  0
 13 11  1  0  0  0  0
 13 14  1  0  0  0  0
 14 12  1  0  0  0  0
 14 20  1  1  0  0  0
 16 19  1  0  0  0  0
 16 12  1  0  0  0  0
 18 16  1  0  0  0  0
 20 21  2  0  0  0  0
 20 22  1  0  0  0  0
 22 23  1  0  0  0  0
 23 24  1  0  0  0  0
 26 25  1  0  0  0  0
 27 34  1  0  0  0  0
 27  4  1  0  0  0  0
 27 28  1  0  0  0  0
 28 29  1  0  0  0  0
 28 32  1  0  0  0  0
 31 30  1  0  0  0  0
 31 28  1  0  0  0  0
 32 33  1  0  0  0  0
 34 35  1  0  0  0  0
 36 27  1  0  0  0  0
 37 36  1  0  0  0  0
M  END
>  <MODEL>
1

>  <REMARK>
 VINA RESULT:      -6.1      0.000      0.000
  Name = 
  16 active torsions:
  status: ('A' for Active; 'I' for Inactive)
    1  A    between atoms: C_1  and  C_2
    2  A    between atoms: C_3  and  C_11
    3  A    between atoms: C_3  and  C_17
    4  A    between atoms: C_4  and  N_10
    5  A    between atoms: C_4  and  C_16
    6  A    between atoms: C_4  and  O_20
    7  A    between atoms: C_4  and  O_22
    8  A    between atoms: C_5  and  O_13
    9  A    between atoms: C_8  and  C_21
   10  A    between atoms: C_9  and  C_25
   11  A    between atoms: N_10  and  C_15
   12  A    between atoms: N_10  and  C_25
   13  A    between atoms: C_11  and  O_24
   14  A    between atoms: C_12  and  C_18
   15  A    between atoms: C_15  and  C_23
   16  A    between atoms: C_26  and  N_28
                            x       y       z     vdW  Elec       q    Type
                         _______ _______ _______ _____ _____    ______ ____

>  <TORSDO>
F 12

$$$$

     RDKit          2D

  1  0  0  0  0  0  0  0  0  0999 V2000
    0.0000    0.0000    0.0000 C   0  0  0  0  0  0  0  0  0  0  0  0
M  END
$$$$

     RDKit          2D

  1  0  0  0  0  0  0  0  0  0999 V2000
    0.0000    0.0000    0.0000 C   0  0  0  0  0  0  0  0  0  0  0  0
M  END
$$$$

     RDKit          2D

  1  0  0  0  0  0  0  0  0  0999 V2000
    0.0000    0.0000    0.0000 C   0  0  0  0  0  0  0  0  0  0  0  0
M  END
$$$$
=
 OpenBabel12172412583D

 35 36  0  0  1  0  0  0  0  0999 V2000
    4.4730   55.5990   21.0750 N   0  0  0  0  0  4  0  0  0  0  0  0
    4.3040   56.2600   20.3170 H   0  0  0  0  0  0  0  0  0  0  0  0
    5.3740   55.1290   20.9850 H   0  0  0  0  0  0  0  0  0  0  0  0
    2.5910   54.6870   22.2990 C   0  0  0  0  0  2  0  0  0  0  0  0
    0.5790   53.7910   21.0590 C   0  0  0  0  0  2  0  0  0  0  0  0
    3.4390   54.5590   21.0250 C   0  0  1  0  0  3  0  0  0  0  0  0
    2.5380   54.6780   19.7870 C   0  0  0  0  0  2  0  0  0  0  0  0
    1.4370   53.6880   22.3180 C   0  0  0  0  0  2  0  0  0  0  0  0
    1.3940   53.6270   19.7500 C   0  0  1  0  0  0  0  0  0  0  0  0
    1.9510   52.1570   19.5380 C   0  0  2  0  0  3  0  0  0  0  0  0
    1.4070   51.5050   18.2580 C   0  0  0  0  0  1  0  0  0  0  0  0
    1.6030   51.2260   20.6420 N   0  0  0  0  0  4  0  0  0  0  0  0
    0.8310   50.6350   20.3320 H   0  0  0  0  0  0  0  0  0  0  0  0
    1.3570   51.8000   21.4480 H   0  0  0  0  0  0  0  0  0  0  0  0
    4.0760   50.9270   20.7040 C   0  0  0  0  0  1  0  0  0  0  0  0
    2.7080   50.3610   21.0580 C   0  0  0  0  0  2  0  0  0  0  0  0
    0.5900   54.0330   18.6130 O   0  0  0  0  0  0  0  0  0  0  0  0
    1.3530   54.9930   17.8270 O   0  0  0  0  0  0  0  0  0  0  0  0
    1.0620   54.9580   16.9020 H   0  0  0  0  0  0  0  0  0  0  0  0
    4.4970   56.3400   22.3400 C   0  0  0  0  0  2  0  0  0  0  0  0
    5.3870   58.1340   20.7960 N   0  0  0  0  0  4  0  0  0  0  0  0
    5.6740   59.5850   20.8460 C   0  0  1  0  0  3  0  0  0  0  0  0
    5.2730   57.6670   22.1990 C   0  0  1  0  0  3  0  0  0  0  0  0
    5.6700   59.9650   22.3310 C   0  0  2  0  0  3  0  0  0  0  0  0
    7.0130   59.8250   20.1550 C   0  0  0  0  0  1  0  0  0  0  0  0
    4.7320   58.9020   22.9480 C   0  0  1  0  0  3  0  0  0  0  0  0
    6.1470   57.6420   20.3250 H   0  0  0  0  0  0  0  0  0  0  0  0
    4.5280   57.9490   20.2790 H   0  0  0  0  0  0  0  0  0  0  0  0
    3.2280   59.1900   22.6870 C   0  0  0  0  0  2  0  0  0  0  0  0
    2.4200   59.3470   23.9690 C   0  0  0  0  0  1  0  0  0  0  0  0
    5.4230   61.8250   23.8460 O   0  0  0  0  0  0  0  0  0  0  0  0
    5.3070   61.4010   22.6900 C   0  0  0  0  0  0  0  0  0  0  0  0
    4.9240   62.3660   21.5760 C   0  0  0  0  0  2  0  0  0  0  0  0
    6.0360   63.1510   21.1660 O   0  0  0  0  0  0  0  0  0  0  0  0
    5.9800   64.0300   21.5740 H   0  0  0  0  0  0  0  0  0  0  0  0
  1 20  1  0  0  0  0
  2  1  1  0  0  0  0
  3  1  1  0  0  0  0
  4  8  1  0  0  0  0
  5  8  1  0  0  0  0
  6  1  1  6  0  0  0
  6  4  1  0  0  0  0
  7  6  1  0  0  0  0
  9 17  1  6  0  0  0
  9  7  1  0  0  0  0
  9  5  1  0  0  0  0
 10 11  1  6  0  0  0
 10  9  1  0  0  0  0
 10 12  1  0  0  0  0
 12 16  1  0  0  0  0
 12 14  1  0  0  0  0
 13 12  1  0  0  0  0
 15 16  1  0  0  0  0
 18 17  1  0  0  0  0
 19 18  1  0  0  0  0
 21 22  1  0  0  0  0
 21 23  1  0  0  0  0
 22 25  1  1  0  0  0
 22 24  1  0  0  0  0
 23 20  1  6  0  0  0
 23 26  1  0  0  0  0
 24 32  1  6  0  0  0
 24 26  1  0  0  0  0
 26 29  1  6  0  0  0
 27 21  1  0  0  0  0
 28 21  1  0  0  0  0
 29 30  1  0  0  0  0
 32 31  2  0  0  0  0
 33 32  1  0  0  0  0
 34 35  1  0  0  0  0
 34 33  1  0  0  0  0
M  END
>  <MODEL>
1

>  <REMARK>
 VINA RESULT:      -6.5      0.000      0.000
  Name = 
  16 active torsions:
  status: ('A' for Active; 'I' for Inactive)
    1  A    between atoms: N_1  and  C_14
    2  A    between atoms: N_1  and  C_23
    3  A    between atoms: N_4  and  C_9
    4  A    between atoms: N_4  and  C_27
    5  A    between atoms: C_6  and  C_19
    6  A    between atoms: C_7  and  C_15
    7  A    between atoms: C_7  and  C_26
    8  A    between atoms: O_10  and  O_21
    9  A    between atoms: C_11  and  C_23
   10  A    between atoms: C_12  and  O_17
   11  A    between atoms: C_12  and  C_25
   12  A    between atoms: C_13  and  C_27
   13  A    between atoms: C_14  and  C_20
   14  A    between atoms: C_14  and  C_24
   15  A    between atoms: C_16  and  C_25
   16  A    between atoms: O_21  and  C_24
                            x       y       z     vdW  Elec       q    Type
                         _______ _______ _______ _____ _____    ______ ____

>  <TORSDO>
F 12

$$$$

     RDKit          2D

  1  0  0  0  0  0  0  0  0  0999 V2000
    0.0000    0.0000    0.0000 C   0  0  0  0  0  0  0  0  0  0  0  0
M  END
$$$$
=
 OpenBabel12172412593D

 34 35  0  0  1  0  0  0  0  0999 V2000
    5.2440   58.7450   22.5350 N   0  0  0  0  0  0  0  0  0  0  0  0
    4.6840   57.6350   21.9320 C   0  0  0  0  0  0  0  0  0  0  0  0
    4.1210   57.6200   20.8430 O   0  0  0  0  0  0  0  0  0  0  0  0
    5.6520   58.5860   23.4160 H   0  0  0  0  0  0  0  0  0  0  0  0
    4.9060   56.3540   22.7860 C   0  0  1  0  0  3  0  0  0  0  0  0
    5.4980   56.7380   24.1050 N   0  0  0  0  0  4  0  0  0  0  0  0
    3.0940   56.4610   24.3180 C   0  0  1  0  0  3  0  0  0  0  0  0
    4.3430   57.0700   24.9840 C   0  0  1  0  0  3  0  0  0  0  0  0
    4.6480   56.6180   26.4100 C   0  0  0  0  0  1  0  0  0  0  0  0
    3.6660   55.5690   23.2100 C   0  0  1  0  0  3  0  0  0  0  0  0
    6.1090   57.5480   23.9980 H   0  0  0  0  0  0  0  0  0  0  0  0
    6.0640   55.9850   24.4960 H   0  0  0  0  0  0  0  0  0  0  0  0
    2.2020   54.5140   25.4320 O   0  0  0  0  0  0  0  0  0  0  0  0
    1.1690   56.5830   26.0250 C   0  0  0  0  0  1  0  0  0  0  0  0
    2.1580   55.7340   25.2680 C   0  0  0  0  0  0  0  0  0  0  0  0
    3.1430   54.0970   21.2020 C   0  0  0  0  0  1  0  0  0  0  0  0
    2.6430   55.1900   22.1340 C   0  0  0  0  0  2  0  0  0  0  0  0
    4.3800   60.9770   22.5880 C   0  0  0  0  0  0  0  0  0  0  0  0
    6.2500   60.5180   21.1350 C   0  0  0  0  0  3  0  0  0  0  0  0
    6.2450   61.8560   20.7200 C   0  0  0  0  0  0  0  0  0  0  0  0
    5.3040   62.7480   21.2500 C   0  0  0  0  0  3  0  0  0  0  0  0
    4.3680   62.3100   22.1870 C   0  0  0  0  0  3  0  0  0  0  0  0
    5.3140   60.0680   22.0660 C   0  0  0  0  0  0  0  0  0  0  0  0
    3.4700   60.5210   23.5070 O   0  0  0  0  0  0  0  0  0  0  0  0
    2.6000   60.8710   23.5180 H   0  0  0  0  0  0  0  0  0  0  0  0
    7.4520   62.4110   19.5230 S   0  0  0  0  0  0  0  0  0  0  0  0
    7.1640   61.2670   18.3430 O   0  0  0  0  0  0  0  0  0  0  0  0
    8.8020   61.5560   16.6130 C   0  0  0  0  0  1  0  0  0  0  0  0
    8.3370   60.6730   17.7670 C   0  0  2  0  0  3  0  0  0  0  0  0
    7.9450   59.2560   17.2990 C   0  0  0  0  0  2  0  0  0  0  0  0
    8.5590   58.8230   16.0420 N   0  0  0  0  0  4  0  0  0  0  0  0
    7.8550   58.8260   15.3020 H   0  0  0  0  0  0  0  0  0  0  0  0
    8.9310   57.8800   16.1520 H   0  0  0  0  0  0  0  0  0  0  0  0
    9.3140   59.4610   15.7940 H   0  0  0  0  0  0  0  0  0  0  0  0
  1  4  1  0  0  0  0
  2  1  1  0  0  0  0
  3  2  2  0  0  0  0
  5  2  1  6  0  0  0
  5 10  1  0  0  0  0
  5  6  1  0  0  0  0
  6 12  1  0  0  0  0
  6  8  1  0  0  0  0
  7  8  1  0  0  0  0
  7 15  1  1  0  0  0
  8  9  1  1  0  0  0
 10 17  1  6  0  0  0
 10  7  1  0  0  0  0
 11  6  1  0  0  0  0
 15 13  2  0  0  0  0
 15 14  1  0  0  0  0
 16 17  1  0  0  0  0
 18 24  1  0  0  0  0
 19 23  1  0  0  0  0
 20 19  2  0  0  0  0
 20 21  1  0  0  0  0
 21 22  2  0  0  0  0
 22 18  1  0  0  0  0
 23  1  1  0  0  0  0
 23 18  2  0  0  0  0
 24 25  1  0  0  0  0
 26 20  1  0  0  0  0
 27 26  1  0  0  0  0
 29 28  1  6  0  0  0
 29 27  1  0  0  0  0
 30 29  1  0  0  0  0
 31 33  1  0  0  0  0
 31 30  1  0  0  0  0
 32 31  1  0  0  0  0
 34 31  1  0  0  0  0
M  END
>  <MODEL>
1

>  <REMARK>
 VINA RESULT:      -6.6      0.000      0.000
  Name = 
  14 active torsions:
  status: ('A' for Active; 'I' for Inactive)
    1  A    between atoms: C_2  and  C_25
    2  A    between atoms: C_3  and  O_12
    3  A    between atoms: C_4  and  C_26
    4  A    between atoms: S_6  and  C_10
    5  A    between atoms: S_6  and  O_21
    6  A    between atoms: C_8  and  C_26
    7  A    between atoms: C_9  and  C_11
    8  A    between atoms: C_11  and  C_22
    9  A    between atoms: C_13  and  C_18
   10  A    between atoms: C_14  and  N_16
   11  A    between atoms: C_14  and  C_20
   12  A    between atoms: N_17  and  C_24
   13  A    between atoms: C_19  and  C_20
   14  A    between atoms: C_20  and  O_21
                            x       y       z     vdW  Elec       q    Type
                         _______ _______ _______ _____ _____    ______ ____

>  <TORSDO>
F 10

$$$$

     RDKit          2D

  1  0  0  0  0  0  0  0  0  0999 V2000
    0.0000    0.0000    0.0000 C   0  0  0  0  0  0  0  0  0  0  0  0
M  END
$$$$
=
 OpenBabel12172413003D

 33 34  0  0  1  0  0  0  0  0999 V2000
    3.5280   58.3480   24.9040 N   0  0  0  0  0  0  0  0  0  0  0  0
    4.1340   59.2910   28.0510 C   0  0  1  0  0  3  0  0  0  0  0  0
    5.5730   58.9280   26.1650 C   0  0  1  0  0  3  0  0  0  0  0  0
    2.9100   60.0700   28.5210 C   0  0  0  0  0  1  0  0  0  0  0  0
    3.7070   58.0370   27.3970 N   0  0  0  0  0  4  0  0  0  0  0  0
    4.3610   57.9710   26.0590 C   0  0  1  0  0  3  0  0  0  0  0  0
    4.9670   60.0490   27.0190 C   0  0  2  0  0  3  0  0  0  0  0  0
    2.6940   58.0310   27.2890 H   0  0  0  0  0  0  0  0  0  0  0  0
    3.9770   57.2330   27.9640 H   0  0  0  0  0  0  0  0  0  0  0  0
    6.9030   60.7140   28.2640 O   0  0  0  0  0  0  0  0  0  0  0  0
    5.9680   61.0660   27.5340 C   0  0  0  0  0  0  0  0  0  0  0  0
    5.8130   62.5400   27.1770 C   0  0  0  0  0  2  0  0  0  0  0  0
    4.9100   62.7200   26.0950 O   0  0  0  0  0  0  0  0  0  0  0  0
    4.0620   63.0470   26.4330 H   0  0  0  0  0  0  0  0  0  0  0  0
    6.9610   56.7650   26.2750 C   0  0  0  0  0  1  0  0  0  0  0  0
    6.7860   58.1900   26.7820 C   0  0  0  0  0  2  0  0  0  0  0  0
    4.1430   59.4240   22.8170 C   0  0  0  0  0  3  0  0  0  0  0  0
    4.2390   57.0410   22.9390 C   0  0  0  0  0  3  0  0  0  0  0  0
    4.5790   59.4050   21.4820 C   0  0  0  0  0  0  0  0  0  0  0  0
    3.9550   58.2540   23.5750 C   0  0  0  0  0  0  0  0  0  0  0  0
    4.8430   58.1810   20.8850 C   0  0  0  0  0  3  0  0  0  0  0  0
    4.6750   57.0020   21.6110 C   0  0  0  0  0  3  0  0  0  0  0  0
    4.6950   60.6440   20.9250 O   0  0  0  0  0  0  0  0  0  0  0  0
    5.8430   61.4830   21.0560 C   0  0  2  0  0  3  0  0  0  0  0  0
    5.5150   62.7800   21.6390 N   0  0  0  0  0  4  0  0  0  0  0  0
    5.1950   62.6510   22.5990 H   0  0  0  0  0  0  0  0  0  0  0  0
    4.7770   63.2220   21.0920 H   0  0  0  0  0  0  0  0  0  0  0  0
    6.3430   63.3750   21.6340 H   0  0  0  0  0  0  0  0  0  0  0  0
    7.7710   60.3890   19.8140 C   0  0  0  0  0  1  0  0  0  0  0  0
    7.4940   62.8760   19.6970 C   0  0  0  0  0  1  0  0  0  0  0  0
    6.7530   61.5360   19.8020 C   0  0  0  0  0  3  0  0  0  0  0  0
    2.1530   58.3770   25.1970 O   0  0  0  0  0  0  0  0  0  0  0  0
    1.6460   58.3380   24.3720 H   0  0  0  0  0  0  0  0  0  0  0  0
  1 32  1  0  0  0  0
  2  4  1  6  0  0  0
  3 16  1  1  0  0  0
  3  7  1  0  0  0  0
  5  9  1  0  0  0  0
  5  2  1  0  0  0  0
  6  1  1  6  0  0  0
  6  3  1  0  0  0  0
  6  5  1  0  0  0  0
  7 11  1  1  0  0  0
  7  2  1  0  0  0  0
  8  5  1  0  0  0  0
 11 10  2  0  0  0  0
 12 11  1  0  0  0  0
 13 14  1  0  0  0  0
 13 12  1  0  0  0  0
 15 16  1  0  0  0  0
 17 20  1  0  0  0  0
 18 20  2  0  0  0  0
 19 17  2  0  0  0  0
 20  1  1  0  0  0  0
 21 19  1  0  0  0  0
 21 22  2  0  0  0  0
 22 18  1  0  0  0  0
 23 24  1  0  0  0  0
 23 19  1  0  0  0  0
 24 31  1  6  0  0  0
 24 25  1  0  0  0  0
 25 26  1  0  0  0  0
 27 25  1  0  0  0  0
 28 25  1  0  0  0  0
 30 31  1  0  0  0  0
 31 29  1  0  0  0  0
 33 32  1  0  0  0  0
M  END
>  <MODEL>
1

>  <REMARK>
 VINA RESULT:      -6.5      0.000      0.000
  Name = 
  15 active torsions:
  status: ('A' for Active; 'I' for Inactive)
    1  A    between atoms: C_1  and  C_11
    2  A    between atoms: C_1  and  O_21
    3  A    between atoms: C_2  and  C_14
    4  A    between atoms: C_5  and  C_22
    5  A    between atoms: C_6  and  C_26
    6  A    between atoms: C_8  and  C_22
    7  A    between atoms: N_9  and  O_17
    8  A    between atoms: N_9  and  C_19
    9  A    between atoms: N_9  and  C_24
   10  A    between atoms: C_10  and  O_13
   11  A    between atoms: C_11  and  C_25
   12  A    between atoms: N_12  and  C_16
   13  A    between atoms: O_13  and  C_16
   14  A    between atoms: C_16  and  C_26
   15  A    between atoms: C_18  and  C_26
                            x       y       z     vdW  Elec       q    Type
                         _______ _______ _______ _____ _____    ______ ____

>  <TORSDO>
F 11

$$$$

     RDKit          2D

  1  0  0  0  0  0  0  0  0  0999 V2000
    0.0000    0.0000    0.0000 C   0  0  0  0  0  0  0  0  0  0  0  0
M  END
$$$$
