
     RDKit          3D

 26 27  0  0  0  0  0  0  0  0999 V2000
    4.3318   56.7494   22.1787 C   0  0  0  0  0  0  0  0  0  0  0  0
    2.5821   55.7825   24.1792 C   0  0  0  0  0  0  0  0  0  0  0  0
    3.0299   51.3030   20.6925 C   0  0  0  0  0  0  0  0  0  0  0  0
    5.1471   62.1548   22.5133 O   0  0  0  0  0  0  0  0  0  0  0  0
    6.4168   59.4512   20.4530 C   0  0  0  0  0  0  0  0  0  0  0  0
    5.0257   58.1134   21.5587 C   0  0  0  0  0  0  0  0  0  0  0  0
    6.8478   62.2675   20.7182 C   0  0  0  0  0  0  0  0  0  0  0  0
    2.3557   50.2330   23.2196 C   0  0  0  0  0  0  0  0  0  0  0  0
    7.5620   59.6519   19.4551 C   0  0  0  0  0  0  0  0  0  0  0  0
    4.7031   59.4338   22.3420 C   0  0  0  0  0  0  0  0  0  0  0  0
    5.9932   58.1525   20.4563 N   0  0  0  0  0  0  0  0  0  0  0  0
    5.9178   61.5669   21.6164 C   0  0  0  0  0  0  0  0  0  0  0  0
    1.2843   53.8572   23.8782 C   0  0  0  0  0  0  0  0  0  0  0  0
    3.1713   50.1350   19.6218 C   0  0  0  0  0  0  0  0  0  0  0  0
    1.5698   49.9831   21.9874 C   0  0  0  0  0  0  0  0  0  0  0  0
    0.4409   52.8962   20.2715 O   0  0  0  0  0  0  0  0  0  0  0  0
   -0.2637   51.8921   21.9900 O   0  0  0  0  0  0  0  0  0  0  0  0
    4.4737   55.8832   21.0980 O   0  0  0  0  0  0  0  0  0  0  0  0
    2.7223   54.5809   22.1177 C   0  0  0  0  0  0  0  0  0  0  0  0
    2.8593   56.6785   25.0542 O   0  0  0  0  0  0  0  0  0  0  0  0
    6.9603   63.4890   20.6846 O   0  0  0  0  0  0  0  0  0  0  0  0
    1.7666   54.7799   24.7690 C   0  0  0  0  0  0  0  0  0  0  0  0
    5.5975   60.1547   21.5212 C   0  0  0  0  0  0  0  0  0  0  0  0
    4.0282   59.4541   23.7465 C   0  0  0  0  0  0  0  0  0  0  0  0
    1.7300   53.6730   22.4619 C   0  0  0  0  0  0  0  0  0  0  0  0
    3.2752   55.7309   22.8640 C   0  0  0  0  0  0  0  0  0  0  0  0
  1  6  1  0
  1 18  1  0
  1 26  1  0
  2 20  1  0
  2 22  2  0
  2 26  1  0
  3 14  1  0
  3 15  1  0
  4 12  1  0
  5  9  1  0
  5 11  1  0
  5 23  1  0
  6 10  1  0
  6 11  1  0
  7 12  1  0
  7 21  2  0
  8 15  1  0
 10 23  1  0
 10 24  1  0
 12 23  1  0
 13 22  1  0
 13 25  2  0
 15 17  1  0
 16 17  1  0
 16 25  1  0
 19 25  1  0
 19 26  2  0
M  END
$$$$

     RDKit          3D

 28 30  0  0  0  0  0  0  0  0999 V2000
    6.0550   58.0521   20.4228 N   0  0  0  0  0  0  0  0  0  0  0  0
    5.2432   62.1819   22.4651 O   0  0  0  0  0  0  0  0  0  0  0  0
    2.4457   55.4910   24.0612 C   0  0  0  0  0  0  0  0  0  0  0  0
    3.7690   59.4487   23.1911 C   0  0  0  0  0  0  0  0  0  0  0  0
    0.9116   53.3701   23.8224 C   0  0  0  0  0  0  0  0  0  0  0  0
    5.0890   57.9754   21.4291 C   0  0  0  0  0  0  0  0  0  0  0  0
    4.4441   56.7955   21.8568 C   0  0  0  0  0  0  0  0  0  0  0  0
    6.9436   61.9016   20.6518 C   0  0  0  0  0  0  0  0  0  0  0  0
    1.1021   50.5893   22.1994 C   0  0  0  0  0  0  0  0  0  0  0  0
    2.8341   50.6414   19.9737 C   0  0  0  0  0  0  0  0  0  0  0  0
    5.7754   61.3499   21.6314 C   0  0  0  0  0  0  0  0  0  0  0  0
    3.7834   56.5107   22.8455 N   0  0  0  0  0  0  0  0  0  0  0  0
    2.9220   56.4219   25.0711 O   0  0  0  0  0  0  0  0  0  0  0  0
    1.3605   53.3306   22.4616 C   0  0  0  0  0  0  0  0  0  0  0  0
    2.8206   51.6636   20.8318 C   0  0  0  0  0  0  0  0  0  0  0  0
    7.8506   59.7040   19.0571 C   0  0  0  0  0  0  0  0  0  0  0  0
    6.9286   63.2993   20.8688 N   0  0  0  0  0  0  0  0  0  0  0  0
    6.3201   59.2673   20.5433 C   0  0  0  0  0  0  0  0  0  0  0  0
    1.5244   54.3878   24.5343 C   0  0  0  0  0  0  0  0  0  0  0  0
    5.4964   59.9635   21.5949 C   0  0  0  0  0  0  0  0  0  0  0  0
    2.4212   54.3997   22.1985 C   0  0  0  0  0  0  0  0  0  0  0  0
    2.2296   50.3778   23.1560 C   0  0  0  0  0  0  0  0  0  0  0  0
    0.7121   53.0576   20.3548 O   0  0  0  0  0  0  0  0  0  0  0  0
    4.2957   59.5661   24.3710 C   0  0  0  0  0  0  0  0  0  0  0  0
    2.9800   55.4619   22.9392 C   0  0  0  0  0  0  0  0  0  0  0  0
    4.8320   59.1763   22.2077 C   0  0  0  0  0  0  0  0  0  0  0  0
    6.9796   59.9825   19.8795 C   0  0  0  0  0  0  0  0  0  0  0  0
    4.3888   56.1798   20.9899 O   0  0  0  0  0  0  0  0  0  0  0  0
  1  6  2  0
  1 18  1  0
  2 11  1  0
  3 13  1  0
  3 19  2  0
  3 25  1  0
  4 24  1  0
  4 26  1  0
  5 14  2  0
  5 19  1  0
  6  7  1  0
  6 26  1  0
  7 12  1  0
  7 28  2  0
  8 11  2  0
  8 17  1  0
  8 27  1  0
  9 15  1  0
  9 22  1  0
 10 15  1  0
 11 20  1  0
 12 25  1  0
 14 21  1  0
 14 23  1  0
 15 23  1  0
 16 27  1  0
 18 20  1  0
 18 27  2  0
 20 26  2  0
 21 25  2  0
M  END
$$$$

     RDKit          3D

 28 30  0  0  0  0  0  0  0  0999 V2000
    5.4144   62.4292   22.2100 O   0  0  0  0  0  0  0  0  0  0  0  0
    2.9715   55.5479   22.9661 C   0  0  0  0  0  0  0  0  0  0  0  0
    3.8086   56.6693   22.5889 N   0  0  0  0  0  0  0  0  0  0  0  0
    6.4527   62.3676   20.9346 C   0  0  0  0  0  0  0  0  0  0  0  0
    0.8563   52.3558   21.7155 S   0  0  0  0  0  0  0  0  0  0  0  0
    6.9384   63.6643   20.6198 O   0  0  0  0  0  0  0  0  0  0  0  0
    2.4601   55.5071   24.3422 C   0  0  0  0  0  0  0  0  0  0  0  0
    5.4936   60.0970   21.3504 C   0  0  0  0  0  0  0  0  0  0  0  0
    1.4424   53.5075   22.7701 C   0  0  0  0  0  0  0  0  0  0  0  0
    3.0172   50.5900   19.6168 C   0  0  0  0  0  0  0  0  0  0  0  0
    0.9974   53.5288   24.2622 C   0  0  0  0  0  0  0  0  0  0  0  0
    6.2810   59.1713   20.3470 C   0  0  0  0  0  0  0  0  0  0  0  0
    3.8247   59.6459   23.1083 C   0  0  0  0  0  0  0  0  0  0  0  0
    2.8550   51.7885   20.4484 C   0  0  0  0  0  0  0  0  0  0  0  0
    4.2937   56.4608   21.3047 N   0  0  0  0  0  0  0  0  0  0  0  0
    4.4854   59.5403   24.4427 C   0  0  0  0  0  0  0  0  0  0  0  0
    1.4297   50.9202   22.0566 C   0  0  0  0  0  0  0  0  0  0  0  0
    0.8182   53.0656   20.1183 O   0  0  0  0  0  0  0  0  0  0  0  0
    5.9089   61.3313   21.4195 C   0  0  0  0  0  0  0  0  0  0  0  0
    7.3955   59.7032   19.5315 C   0  0  0  0  0  0  0  0  0  0  0  0
    1.9983   50.6992   23.3281 C   0  0  0  0  0  0  0  0  0  0  0  0
   -0.4295   52.1550   22.2777 O   0  0  0  0  0  0  0  0  0  0  0  0
    2.3840   54.6023   22.2395 C   0  0  0  0  0  0  0  0  0  0  0  0
    1.5395   54.6023   24.9934 C   0  0  0  0  0  0  0  0  0  0  0  0
    7.0683   61.1488   19.9201 C   0  0  0  0  0  0  0  0  0  0  0  0
    4.8038   57.9377   21.4453 C   0  0  0  0  0  0  0  0  0  0  0  0
    5.8469   57.9371   20.6237 N   0  0  0  0  0  0  0  0  0  0  0  0
    4.7467   59.3259   21.9881 C   0  0  0  0  0  0  0  0  0  0  0  0
  1 19  1  0
  2  3  1  0
  2  7  2  0
  2 23  1  0
  3 15  1  0
  4  6  1  0
  4 19  1  0
  4 25  1  0
  5  9  1  0
  5 14  1  0
  5 17  1  0
  5 18  1  0
  5 22  1  0
  7 24  1  0
  8 12  1  0
  8 19  1  0
  8 28  1  0
  9 11  1  0
  9 23  2  0
 10 14  1  0
 11 24  2  0
 12 20  1  0
 12 27  1  0
 13 16  1  0
 13 28  1  0
 15 26  1  0
 17 21  1  0
 20 25  1  0
 26 27  1  0
 26 28  1  0
M  END
$$$$

     RDKit          3D

 29 31  0  0  0  0  0  0  0  0999 V2000
    2.9798   55.5548   22.9496 C   0  0  0  0  0  0  0  0  0  0  0  0
    1.6697   50.2281   22.7273 C   0  0  0  0  0  0  0  0  0  0  0  0
    5.8034   61.5709   21.6163 C   0  0  0  0  0  0  0  0  0  0  0  0
    5.8866   58.1097   20.3504 N   0  0  0  0  0  0  0  0  0  0  0  0
    5.7375   60.1586   21.3008 C   0  0  0  0  0  0  0  0  0  0  0  0
    4.3100   56.0846   20.9684 O   0  0  0  0  0  0  0  0  0  0  0  0
    1.5542   54.1975   24.7985 C   0  0  0  0  0  0  0  0  0  0  0  0
    6.8527   62.2619   20.6877 C   0  0  0  0  0  0  0  0  0  0  0  0
    6.9803   63.7098   20.7392 O   0  0  0  0  0  0  0  0  0  0  0  0
    7.3760   59.6744   19.5506 C   0  0  0  0  0  0  0  0  0  0  0  0
    3.7687   56.7938   22.8635 C   0  0  0  0  0  0  0  0  0  0  0  0
    2.8692   56.1525   25.1251 O   0  0  0  0  0  0  0  0  0  0  0  0
    4.8598   59.4480   21.9843 C   0  0  0  0  0  0  0  0  0  0  0  0
    2.9599   51.4629   21.2955 C   0  0  0  0  0  0  0  0  0  0  0  0
    0.9809   53.0747   24.0900 C   0  0  0  0  0  0  0  0  0  0  0  0
    7.4949   61.1739   19.8683 C   0  0  0  0  0  0  0  0  0  0  0  0
    0.5372   53.2539   20.4211 O   0  0  0  0  0  0  0  0  0  0  0  0
    4.4386   59.8922   24.4519 N   0  0  0  0  0  0  0  0  0  0  0  0
    2.4014   50.2822   23.8853 O   0  0  0  0  0  0  0  0  0  0  0  0
    5.0955   58.1439   21.3623 C   0  0  0  0  0  0  0  0  0  0  0  0
    1.4784   53.3010   22.6599 C   0  0  0  0  0  0  0  0  0  0  0  0
    2.4639   55.2340   24.1641 C   0  0  0  0  0  0  0  0  0  0  0  0
    3.9713   59.9032   23.0756 C   0  0  0  0  0  0  0  0  0  0  0  0
    2.4530   54.4408   22.2810 C   0  0  0  0  0  0  0  0  0  0  0  0
   -0.1035   51.9122   21.7701 N   0  0  0  0  0  0  0  0  0  0  0  0
    3.3340   50.7641   20.3432 C   0  0  0  0  0  0  0  0  0  0  0  0
    6.3168   59.1040   20.3757 C   0  0  0  0  0  0  0  0  0  0  0  0
    5.2244   62.2572   22.4263 O   0  0  0  0  0  0  0  0  0  0  0  0
    4.2578   56.9532   21.8952 C   0  0  0  0  0  0  0  0  0  0  0  0
  1 11  1  0
  1 22  2  0
  1 24  1  0
  2 14  1  0
  2 19  1  0
  2 25  1  0
  3  5  1  0
  3  8  1  0
  3 28  2  0
  4 20  2  0
  4 27  1  0
  5 13  2  0
  5 27  1  0
  6 29  2  0
  7 15  2  0
  7 22  1  0
  8  9  1  0
  8 16  2  0
 10 16  1  0
 10 27  2  0
 11 29  1  0
 12 22  1  0
 13 20  1  0
 13 23  1  0
 14 26  1  0
 15 21  1  0
 17 25  1  0
 18 23  1  0
 20 29  1  0
 21 24  2  0
 21 25  1  0
M  END
$$$$

     RDKit          3D

 27 29  0  0  0  0  0  0  0  0999 V2000
    2.8997   55.6055   23.1356 C   0  0  0  0  0  0  0  0  0  0  0  0
    4.5556   56.9263   21.9691 C   0  0  0  0  0  0  0  0  0  0  0  0
    7.0013   63.6105   20.6862 F   0  0  0  0  0  0  0  0  0  0  0  0
    5.6620   60.5026   21.4509 C   0  0  0  0  0  0  0  0  0  0  0  0
    6.0095   58.2630   20.4158 N   0  0  0  0  0  0  0  0  0  0  0  0
    6.7069   59.7468   20.2438 C   0  0  0  0  0  0  0  0  0  0  0  0
    1.4703   53.5869   22.8176 C   0  0  0  0  0  0  0  0  0  0  0  0
    0.7384   52.9487   20.4708 O   0  0  0  0  0  0  0  0  0  0  0  0
    3.8769   59.8088   22.9909 C   0  0  0  0  0  0  0  0  0  0  0  0
    5.5499   61.8865   21.8768 N   0  0  0  0  0  0  0  0  0  0  0  0
   -0.5022   51.9660   21.9690 O   0  0  0  0  0  0  0  0  0  0  0  0
    2.8976   56.5578   25.2207 O   0  0  0  0  0  0  0  0  0  0  0  0
    1.4854   54.5880   24.9100 C   0  0  0  0  0  0  0  0  0  0  0  0
    2.2331   50.3291   23.5174 C   0  0  0  0  0  0  0  0  0  0  0  0
    5.1161   58.0839   21.3552 C   0  0  0  0  0  0  0  0  0  0  0  0
    7.7993   59.5193   18.9774 C   0  0  0  0  0  0  0  0  0  0  0  0
    4.3542   59.5872   24.4945 C   0  0  0  0  0  0  0  0  0  0  0  0
    4.3556   56.0103   20.9084 O   0  0  0  0  0  0  0  0  0  0  0  0
    2.4361   54.5731   22.3682 C   0  0  0  0  0  0  0  0  0  0  0  0
    2.9513   51.5118   20.8468 C   0  0  0  0  0  0  0  0  0  0  0  0
    4.9001   59.4725   21.9357 C   0  0  0  0  0  0  0  0  0  0  0  0
    0.9273   53.6150   24.0139 C   0  0  0  0  0  0  0  0  0  0  0  0
    3.1335   50.3760   19.7791 C   0  0  0  0  0  0  0  0  0  0  0  0
    2.3885   55.5440   24.3998 C   0  0  0  0  0  0  0  0  0  0  0  0
    1.4192   50.1702   22.3077 C   0  0  0  0  0  0  0  0  0  0  0  0
    6.5231   62.3036   21.0113 C   0  0  0  0  0  0  0  0  0  0  0  0
    7.0160   61.2245   20.3254 C   0  0  0  0  0  0  0  0  0  0  0  0
  1  2  1  0
  1 19  1  0
  1 24  2  0
  2 15  1  0
  2 18  1  0
  3 26  1  0
  4  6  1  0
  4 10  1  0
  4 21  1  0
  5  6  1  0
  5 15  1  0
  6 16  1  0
  6 27  1  0
  7  8  1  0
  7 19  2  0
  7 22  1  0
  8 11  1  0
  9 17  1  0
  9 21  1  0
 10 26  1  0
 11 25  1  0
 12 24  1  0
 13 22  2  0
 13 24  1  0
 14 25  1  0
 15 21  1  0
 20 23  1  0
 20 25  1  0
 26 27  1  0
M  END
$$$$

     RDKit          3D

 28 29  0  0  0  0  0  0  0  0999 V2000
    5.3027   62.2529   22.1835 O   0  0  0  0  0  0  0  0  0  0  0  0
    3.7168   56.5032   22.8936 N   0  0  0  0  0  0  0  0  0  0  0  0
    4.2496   55.8059   21.0379 O   0  0  0  0  0  0  0  0  0  0  0  0
    2.4092   55.2573   24.3394 C   0  0  0  0  0  0  0  0  0  0  0  0
    5.1077   58.0199   21.3944 C   0  0  0  0  0  0  0  0  0  0  0  0
    0.9796   53.4045   23.8903 C   0  0  0  0  0  0  0  0  0  0  0  0
    4.9289   59.3562   21.9601 N   0  0  0  0  0  0  0  0  0  0  0  0
    0.7405   53.0377   20.3925 O   0  0  0  0  0  0  0  0  0  0  0  0
    1.4725   53.4655   22.6414 C   0  0  0  0  0  0  0  0  0  0  0  0
    6.5412   59.3425   20.4024 C   0  0  0  0  0  0  0  0  0  0  0  0
    6.8654   62.3604   20.8742 C   0  0  0  0  0  0  0  0  0  0  0  0
    2.4112   54.4554   22.2961 C   0  0  0  0  0  0  0  0  0  0  0  0
    7.6438   59.8696   19.6113 C   0  0  0  0  0  0  0  0  0  0  0  0
    5.7865   60.1284   21.2349 C   0  0  0  0  0  0  0  0  0  0  0  0
    3.0593   50.5916   19.8432 C   0  0  0  0  0  0  0  0  0  0  0  0
    3.8895   59.6854   22.9259 C   0  0  0  0  0  0  0  0  0  0  0  0
    2.2221   50.3316   23.4185 C   0  0  0  0  0  0  0  0  0  0  0  0
   -0.6115   52.0662   22.1179 O   0  0  0  0  0  0  0  0  0  0  0  0
    2.9675   55.4522   23.0762 C   0  0  0  0  0  0  0  0  0  0  0  0
    2.7945   56.1215   25.2388 O   0  0  0  0  0  0  0  0  0  0  0  0
    4.6524   59.8421   24.2149 C   0  0  0  0  0  0  0  0  0  0  0  0
    1.2211   50.3924   22.3093 C   0  0  0  0  0  0  0  0  0  0  0  0
    6.0158   58.0990   20.5244 N   0  0  0  0  0  0  0  0  0  0  0  0
    4.3135   56.8205   21.8234 C   0  0  0  0  0  0  0  0  0  0  0  0
    6.8931   63.5411   20.7842 O   0  0  0  0  0  0  0  0  0  0  0  0
    1.5367   54.3785   24.7353 C   0  0  0  0  0  0  0  0  0  0  0  0
    2.7860   51.6660   20.8210 C   0  0  0  0  0  0  0  0  0  0  0  0
    5.8374   61.6536   21.6309 C   0  0  0  0  0  0  0  0  0  0  0  0
  1 28  2  0
  2 19  1  0
  2 24  1  0
  3 24  2  0
  4 19  2  0
  4 20  1  0
  4 26  1  0
  5  7  1  0
  5 23  1  0
  5 24  1  0
  6  9  1  0
  6 26  2  0
  7 14  1  0
  7 16  1  0
  8  9  1  0
  8 18  1  0
  9 12  2  0
 10 13  1  0
 10 14  1  0
 10 23  1  0
 11 25  2  0
 11 28  1  0
 12 19  1  0
 14 28  1  0
 15 27  1  0
 16 21  1  0
 17 22  1  0
 18 22  1  0
 22 27  1  0
M  END
$$$$

     RDKit          3D

 28 30  0  0  0  0  0  0  0  0999 V2000
    5.8356   61.7886   21.6704 C   0  0  0  0  0  0  0  0  0  0  0  0
    1.9669   50.2416   22.8617 N   0  0  0  0  0  0  0  0  0  0  0  0
    3.7713   56.5654   22.9029 N   0  0  0  0  0  0  0  0  0  0  0  0
    6.8783   62.2009   20.7814 C   0  0  0  0  0  0  0  0  0  0  0  0
    4.2280   56.7673   21.5764 C   0  0  0  0  0  0  0  0  0  0  0  0
    2.8056   56.3537   25.2690 O   0  0  0  0  0  0  0  0  0  0  0  0
    0.7152   52.4126   21.6432 S   0  0  0  0  0  0  0  0  0  0  0  0
    3.9376   59.7326   22.9338 C   0  0  0  0  0  0  0  0  0  0  0  0
    6.3912   59.3717   20.4108 C   0  0  0  0  0  0  0  0  0  0  0  0
    0.9427   53.6094   23.8269 C   0  0  0  0  0  0  0  0  0  0  0  0
    4.8913   59.5228   21.8089 C   0  0  0  0  0  0  0  0  0  0  0  0
    4.2216   55.8525   20.4999 O   0  0  0  0  0  0  0  0  0  0  0  0
    5.9355   58.1529   20.4371 N   0  0  0  0  0  0  0  0  0  0  0  0
   -0.2897   51.8602   21.9619 O   0  0  0  0  0  0  0  0  0  0  0  0
    1.3922   53.5393   22.4952 C   0  0  0  0  0  0  0  0  0  0  0  0
    2.7569   50.4013   19.6381 C   0  0  0  0  0  0  0  0  0  0  0  0
    4.2038   59.3417   24.2472 C   0  0  0  0  0  0  0  0  0  0  0  0
    2.4364   55.5046   24.3695 C   0  0  0  0  0  0  0  0  0  0  0  0
    2.3777   54.5696   22.1113 C   0  0  0  0  0  0  0  0  0  0  0  0
    0.6090   53.0280   20.2262 O   0  0  0  0  0  0  0  0  0  0  0  0
    2.8454   51.5653   20.5586 C   0  0  0  0  0  0  0  0  0  0  0  0
    4.9610   58.1589   21.4825 C   0  0  0  0  0  0  0  0  0  0  0  0
    7.6316   61.3582   19.9775 C   0  0  0  0  0  0  0  0  0  0  0  0
    1.4460   54.4691   24.6796 C   0  0  0  0  0  0  0  0  0  0  0  0
    0.8716   50.4073   22.0399 C   0  0  0  0  0  0  0  0  0  0  0  0
    7.4405   59.8151   19.6332 C   0  0  0  0  0  0  0  0  0  0  0  0
    2.9494   55.5917   22.9468 C   0  0  0  0  0  0  0  0  0  0  0  0
    5.5784   60.4275   21.4338 C   0  0  0  0  0  0  0  0  0  0  0  0
  1  4  1  0
  1 28  1  0
  2 25  1  0
  3  5  1  0
  3 27  1  0
  4 23  1  0
  5 12  2  0
  5 22  1  0
  6 18  1  0
  7 14  1  0
  7 15  1  0
  7 20  1  0
  7 21  1  0
  7 25  1  0
  8 11  1  0
  8 17  1  0
  9 13  1  0
  9 26  1  0
  9 28  1  0
 10 15  2  0
 10 24  1  0
 11 22  1  0
 11 28  1  0
 13 22  1  0
 15 19  1  0
 16 21  1  0
 18 24  2  0
 18 27  1  0
 19 27  2  0
 23 26  1  0
M  END
$$$$

     RDKit          3D

 28 30  0  0  0  0  0  0  0  0999 V2000
    6.8985   62.2125   20.6505 C   0  0  0  0  0  0  0  0  0  0  0  0
    2.6738   55.4861   24.0223 C   0  0  0  0  0  0  0  0  0  0  0  0
    3.8067   59.8508   22.9907 C   0  0  0  0  0  0  0  0  0  0  0  0
    1.3436   53.8801   23.8806 C   0  0  0  0  0  0  0  0  0  0  0  0
    5.7608   61.6112   21.5965 C   0  0  0  0  0  0  0  0  0  0  0  0
    5.8849   58.0269   20.3493 N   0  0  0  0  0  0  0  0  0  0  0  0
    4.4509   56.8364   21.5695 C   0  0  0  0  0  0  0  0  0  0  0  0
    1.8862   54.7971   24.8112 C   0  0  0  0  0  0  0  0  0  0  0  0
    1.0714   52.6284   21.3942 S   0  0  0  0  0  0  0  0  0  0  0  0
    3.1962   55.8433   23.4139 C   0  0  0  0  0  0  0  0  0  0  0  0
    4.7194   59.3789   21.9516 C   0  0  0  0  0  0  0  0  0  0  0  0
    4.3647   59.4507   24.3899 C   0  0  0  0  0  0  0  0  0  0  0  0
    7.4056   59.6106   19.5746 C   0  0  0  0  0  0  0  0  0  0  0  0
    2.6318   50.1753   23.5020 C   0  0  0  0  0  0  0  0  0  0  0  0
   -0.1673   52.2308   21.6359 O   0  0  0  0  0  0  0  0  0  0  0  0
    7.0967   63.6492   20.5627 O   0  0  0  0  0  0  0  0  0  0  0  0
    4.2551   56.0291   20.7790 O   0  0  0  0  0  0  0  0  0  0  0  0
    4.9768   58.1795   21.2695 C   0  0  0  0  0  0  0  0  0  0  0  0
    7.3963   61.0824   19.9401 C   0  0  0  0  0  0  0  0  0  0  0  0
    2.7797   55.0067   22.2540 C   0  0  0  0  0  0  0  0  0  0  0  0
    1.6006   50.2308   22.3858 C   0  0  0  0  0  0  0  0  0  0  0  0
    1.0861   53.5039   20.2390 O   0  0  0  0  0  0  0  0  0  0  0  0
    6.2524   59.2892   20.4952 C   0  0  0  0  0  0  0  0  0  0  0  0
    5.2172   62.3349   22.3604 O   0  0  0  0  0  0  0  0  0  0  0  0
    3.0434   50.8135   20.1896 C   0  0  0  0  0  0  0  0  0  0  0  0
    5.5577   60.2432   21.4689 C   0  0  0  0  0  0  0  0  0  0  0  0
    1.8153   53.9228   22.5973 C   0  0  0  0  0  0  0  0  0  0  0  0
    4.0131   56.5700   22.6146 N   0  0  0  0  0  0  0  0  0  0  0  0
  1  5  1  0
  1 16  1  0
  1 19  2  0
  2  8  2  0
  2 10  1  0
  3 11  1  0
  3 12  1  0
  4  8  1  0
  4 27  2  0
  5 24  2  0
  5 26  1  0
  6 18  2  0
  6 23  1  0
  7 17  2  0
  7 18  1  0
  7 28  1  0
  9 15  1  0
  9 21  1  0
  9 22  1  0
  9 25  1  0
  9 27  1  0
 10 20  2  0
 10 28  1  0
 11 18  1  0
 11 26  2  0
 13 19  1  0
 13 23  2  0
 14 21  1  0
 20 27  1  0
 23 26  1  0
M  END
$$$$

     RDKit          3D

 28 29  0  0  0  0  0  0  0  0999 V2000
    5.0246   57.9142   21.5810 C   0  0  0  0  0  0  0  0  0  0  0  0
    5.8470   61.4894   21.6999 C   0  0  0  0  0  0  0  0  0  0  0  0
    2.8186   55.6753   24.0001 C   0  0  0  0  0  0  0  0  0  0  0  0
    5.9753   58.2550   20.5564 N   0  0  0  0  0  0  0  0  0  0  0  0
    3.2103   55.5678   22.5306 C   0  0  0  0  0  0  0  0  0  0  0  0
    1.2799   53.7117   23.5703 C   0  0  0  0  0  0  0  0  0  0  0  0
    4.2807   56.7369   21.9898 C   0  0  0  0  0  0  0  0  0  0  0  0
    7.1160   63.4583   20.6952 O   0  0  0  0  0  0  0  0  0  0  0  0
    4.1918   55.9466   20.9196 O   0  0  0  0  0  0  0  0  0  0  0  0
    1.7538   50.1607   22.2680 C   0  0  0  0  0  0  0  0  0  0  0  0
    5.6111   60.3574   21.6325 C   0  0  0  0  0  0  0  0  0  0  0  0
    3.1440   51.4425   20.8895 C   0  0  0  0  0  0  0  0  0  0  0  0
    1.7974   53.6622   22.3631 C   0  0  0  0  0  0  0  0  0  0  0  0
    4.9346   59.2756   22.1253 C   0  0  0  0  0  0  0  0  0  0  0  0
   -0.2541   52.1744   21.8174 O   0  0  0  0  0  0  0  0  0  0  0  0
    4.4455   59.3741   24.2360 C   0  0  0  0  0  0  0  0  0  0  0  0
    1.7574   54.7716   24.4227 N   0  0  0  0  0  0  0  0  0  0  0  0
    2.8913   56.3565   25.0444 N   0  0  0  0  0  0  0  0  0  0  0  0
    7.5674   59.9469   19.6147 C   0  0  0  0  0  0  0  0  0  0  0  0
    2.7213   50.1910   23.3808 N   0  0  0  0  0  0  0  0  0  0  0  0
    6.7642   62.1648   20.8646 C   0  0  0  0  0  0  0  0  0  0  0  0
    3.2785   50.2085   20.1309 C   0  0  0  0  0  0  0  0  0  0  0  0
    6.4151   59.5555   20.5283 C   0  0  0  0  0  0  0  0  0  0  0  0
    1.4830   53.0220   20.5170 C   0  0  0  0  0  0  0  0  0  0  0  0
    2.6500   54.5478   21.8504 C   0  0  0  0  0  0  0  0  0  0  0  0
    5.3789   62.1612   22.2612 O   0  0  0  0  0  0  0  0  0  0  0  0
    4.2017   59.5278   23.0151 C   0  0  0  0  0  0  0  0  0  0  0  0
    2.1059   51.3190   21.4011 N   0  0  0  0  0  0  0  0  0  0  0  0
  1  4  1  0
  1  7  1  0
  1 14  1  0
  2 11  1  0
  2 21  1  0
  2 26  2  0
  3  5  2  0
  3 17  1  0
  3 18  1  0
  4 23  1  0
  5  7  1  0
  5 25  1  0
  6 13  1  0
  6 17  2  0
  7  9  1  0
  8 21  1  0
 10 20  1  0
 10 28  1  0
 11 14  1  0
 11 23  1  0
 12 22  1  0
 12 28  1  0
 13 24  1  0
 13 25  2  0
 14 27  1  0
 15 24  1  0
 16 27  2  0
 19 23  1  0
 24 28  1  0
M  END
$$$$

     RDKit          3D

 28 29  0  0  0  0  0  0  0  0999 V2000
    4.3524   56.8180   21.8953 C   0  0  0  0  0  0  0  0  0  0  0  0
    5.9047   61.6471   21.4745 C   0  0  0  0  0  0  0  0  0  0  0  0
    2.5758   55.6409   24.4518 C   0  0  0  0  0  0  0  0  0  0  0  0
    6.4836   59.3537   20.2807 C   0  0  0  0  0  0  0  0  0  0  0  0
    5.0776   57.9963   21.5115 C   0  0  0  0  0  0  0  0  0  0  0  0
    1.6997   50.9709   21.4667 N   0  0  0  0  0  0  0  0  0  0  0  0
    5.7311   60.2025   21.2944 C   0  0  0  0  0  0  0  0  0  0  0  0
    2.8846   51.2193   20.4315 C   0  0  0  0  0  0  0  0  0  0  0  0
    6.8483   63.3847   20.5833 N   0  0  0  0  0  0  0  0  0  0  0  0
    1.2172   53.6824   23.8947 C   0  0  0  0  0  0  0  0  0  0  0  0
    3.0811   55.6701   23.1293 C   0  0  0  0  0  0  0  0  0  0  0  0
    2.3057   50.2075   23.0894 C   0  0  0  0  0  0  0  0  0  0  0  0
    0.7832   53.0756   20.2778 O   0  0  0  0  0  0  0  0  0  0  0  0
    3.1980   49.8475   19.2382 C   0  0  0  0  0  0  0  0  0  0  0  0
    3.8685   59.7841   23.1038 C   0  0  0  0  0  0  0  0  0  0  0  0
    4.5946   59.7795   24.6188 C   0  0  0  0  0  0  0  0  0  0  0  0
    4.3213   56.0524   20.9752 O   0  0  0  0  0  0  0  0  0  0  0  0
   -0.4097   52.0318   21.8519 O   0  0  0  0  0  0  0  0  0  0  0  0
    2.5858   54.6156   22.2668 C   0  0  0  0  0  0  0  0  0  0  0  0
    5.9609   58.0849   20.5770 N   0  0  0  0  0  0  0  0  0  0  0  0
    1.6213   53.6829   22.7214 C   0  0  0  0  0  0  0  0  0  0  0  0
    1.6542   54.5599   24.9361 C   0  0  0  0  0  0  0  0  0  0  0  0
    2.7552   56.2787   25.5250 O   0  0  0  0  0  0  0  0  0  0  0  0
    7.4863   59.7162   19.4147 C   0  0  0  0  0  0  0  0  0  0  0  0
    4.8973   59.3640   22.0219 C   0  0  0  0  0  0  0  0  0  0  0  0
    5.2616   62.1282   22.3018 O   0  0  0  0  0  0  0  0  0  0  0  0
    3.9010   56.6588   23.0389 C   0  0  0  0  0  0  0  0  0  0  0  0
    6.8788   62.2421   20.6552 C   0  0  0  0  0  0  0  0  0  0  0  0
  1  5  1  0
  1 17  2  0
  1 27  1  0
  2  7  1  0
  2 26  2  0
  2 28  1  0
  3 11  1  0
  3 22  1  0
  3 23  2  0
  4  7  1  0
  4 20  1  0
  4 24  1  0
  5 20  1  0
  5 25  1  0
  6  8  1  0
  6 12  1  0
  6 18  1  0
  7 25  1  0
  8 14  1  0
  9 28  2  0
 10 21  1  0
 10 22  1  0
 11 19  1  0
 11 27  1  0
 13 18  1  0
 13 21  1  0
 15 16  1  0
 15 25  1  0
 19 21  1  0
M  END
$$$$

     RDKit          3D

 27 28  0  0  0  0  0  0  0  0999 V2000
    4.3398   56.9661   21.5370 C   0  0  0  0  0  0  0  0  0  0  0  0
    0.8138   52.6476   21.6282 S   0  0  0  0  0  0  0  0  0  0  0  0
    6.6601   61.9179   20.7532 C   0  0  0  0  0  0  0  0  0  0  0  0
    1.5929   53.5905   22.4839 C   0  0  0  0  0  0  0  0  0  0  0  0
    2.4145   55.5442   24.3343 C   0  0  0  0  0  0  0  0  0  0  0  0
    4.9211   59.7598   21.8395 C   0  0  0  0  0  0  0  0  0  0  0  0
    6.4775   59.6721   20.2473 C   0  0  0  0  0  0  0  0  0  0  0  0
    1.1378   53.6490   23.7707 C   0  0  0  0  0  0  0  0  0  0  0  0
    4.3304   56.0108   20.7210 O   0  0  0  0  0  0  0  0  0  0  0  0
    7.5809   59.4892   19.2399 N   0  0  0  0  0  0  0  0  0  0  0  0
    3.0448   55.6849   22.9743 C   0  0  0  0  0  0  0  0  0  0  0  0
    6.8290   63.3098   20.8074 O   0  0  0  0  0  0  0  0  0  0  0  0
    1.7300   51.3321   21.1705 N   0  0  0  0  0  0  0  0  0  0  0  0
    4.2462   59.7687   24.1047 C   0  0  0  0  0  0  0  0  0  0  0  0
    5.8665   58.3351   20.5371 C   0  0  0  0  0  0  0  0  0  0  0  0
    2.0504   50.0894   23.1398 C   0  0  0  0  0  0  0  0  0  0  0  0
    2.8342   56.4961   25.0949 O   0  0  0  0  0  0  0  0  0  0  0  0
    2.4951   54.6095   22.1295 C   0  0  0  0  0  0  0  0  0  0  0  0
    3.7684   56.7210   22.6779 N   0  0  0  0  0  0  0  0  0  0  0  0
    1.1762   50.0669   21.6728 C   0  0  0  0  0  0  0  0  0  0  0  0
    1.5835   54.5270   24.6915 C   0  0  0  0  0  0  0  0  0  0  0  0
    2.8719   50.2894   19.6335 C   0  0  0  0  0  0  0  0  0  0  0  0
    3.8749   59.6794   22.8720 C   0  0  0  0  0  0  0  0  0  0  0  0
    5.1913   62.0899   22.4057 O   0  0  0  0  0  0  0  0  0  0  0  0
    5.7764   61.2961   21.7295 C   0  0  0  0  0  0  0  0  0  0  0  0
    4.9512   58.3004   21.2886 C   0  0  0  0  0  0  0  0  0  0  0  0
    3.0357   51.5531   20.6261 C   0  0  0  0  0  0  0  0  0  0  0  0
  1  9  2  0
  1 19  1  0
  1 26  1  0
  2  4  1  0
  2 13  1  0
  3 12  1  0
  3 25  1  0
  4  8  2  0
  4 18  1  0
  5 11  1  0
  5 17  1  0
  5 21  2  0
  6 23  1  0
  6 25  1  0
  6 26  1  0
  7 10  1  0
  7 15  1  0
  7 25  1  0
  8 21  1  0
 11 18  2  0
 11 19  1  0
 13 20  1  0
 13 27  1  0
 14 23  2  0
 15 26  1  0
 16 20  1  0
 22 27  1  0
 24 25  1  0
M  END
$$$$

     RDKit          3D

 26 27  0  0  0  0  0  0  0  0999 V2000
    5.0715   58.2088   21.3939 C   0  0  0  0  0  0  0  0  0  0  0  0
    2.2946   55.5653   24.4623 C   0  0  0  0  0  0  0  0  0  0  0  0
    4.4126   56.9825   21.7447 C   0  0  0  0  0  0  0  0  0  0  0  0
    5.0039   59.6176   21.7337 C   0  0  0  0  0  0  0  0  0  0  0  0
    0.7630   52.2248   21.7793 S   0  0  0  0  0  0  0  0  0  0  0  0
    5.2802   61.9891   22.0717 O   0  0  0  0  0  0  0  0  0  0  0  0
    6.0946   58.5789   20.5538 N   0  0  0  0  0  0  0  0  0  0  0  0
    2.6912   55.4984   23.0922 C   0  0  0  0  0  0  0  0  0  0  0  0
    4.4281   59.7389   24.4180 C   0  0  0  0  0  0  0  0  0  0  0  0
    3.1098   50.6003   19.6801 C   0  0  0  0  0  0  0  0  0  0  0  0
    1.8213   50.3897   22.9521 C   0  0  0  0  0  0  0  0  0  0  0  0
    3.0250   51.7525   20.9051 C   0  0  0  0  0  0  0  0  0  0  0  0
    0.8273   53.5332   24.2748 C   0  0  0  0  0  0  0  0  0  0  0  0
    2.1850   54.4748   22.3357 C   0  0  0  0  0  0  0  0  0  0  0  0
    3.9112   59.6564   22.8758 C   0  0  0  0  0  0  0  0  0  0  0  0
    4.2320   56.0396   20.9555 O   0  0  0  0  0  0  0  0  0  0  0  0
    0.6630   52.5683   20.3134 O   0  0  0  0  0  0  0  0  0  0  0  0
    1.4597   54.5868   25.0611 C   0  0  0  0  0  0  0  0  0  0  0  0
    3.7258   56.6832   22.8038 C   0  0  0  0  0  0  0  0  0  0  0  0
    7.0187   62.0811   20.4358 C   0  0  0  0  0  0  0  0  0  0  0  0
    6.6274   59.5799   20.2916 C   0  0  0  0  0  0  0  0  0  0  0  0
    2.8526   56.4924   25.2874 O   0  0  0  0  0  0  0  0  0  0  0  0
    7.8515   59.7132   19.1927 C   0  0  0  0  0  0  0  0  0  0  0  0
    1.3041   53.4177   22.8376 C   0  0  0  0  0  0  0  0  0  0  0  0
   -0.4541   52.0627   22.0771 O   0  0  0  0  0  0  0  0  0  0  0  0
    6.2485   60.9542   20.8777 C   0  0  0  0  0  0  0  0  0  0  0  0
  1  3  1  0
  1  4  1  0
  1  7  1  0
  2  8  2  0
  2 18  1  0
  2 22  1  0
  3 16  2  0
  3 19  1  0
  4 15  1  0
  4 26  1  0
  5 11  1  0
  5 12  1  0
  5 17  1  0
  5 24  1  0
  5 25  1  0
  6 26  1  0
  7 21  1  0
  8 14  1  0
  8 19  1  0
  9 15  1  0
 10 12  1  0
 13 18  2  0
 13 24  1  0
 14 24  2  0
 20 26  1  0
 21 23  1  0
 21 26  1  0
M  END
$$$$

     RDKit          3D

 28 29  0  0  0  0  0  0  0  0999 V2000
    0.9060   52.6505   21.8252 C   0  0  0  0  0  0  0  0  0  0  0  0
    5.9188   58.1881   20.2956 N   0  0  0  0  0  0  0  0  0  0  0  0
    3.7614   56.5285   22.8368 N   0  0  0  0  0  0  0  0  0  0  0  0
    1.6405   53.8079   22.7713 C   0  0  0  0  0  0  0  0  0  0  0  0
    4.2882   55.9087   20.6566 O   0  0  0  0  0  0  0  0  0  0  0  0
    5.5939   60.6347   21.3939 C   0  0  0  0  0  0  0  0  0  0  0  0
    2.5300   55.3486   24.0883 C   0  0  0  0  0  0  0  0  0  0  0  0
    6.8666   62.0566   20.6039 C   0  0  0  0  0  0  0  0  0  0  0  0
    6.5273   59.4000   20.2795 C   0  0  0  0  0  0  0  0  0  0  0  0
    2.5411   50.1310   23.4216 N   0  0  0  0  0  0  0  0  0  0  0  0
   -0.3281   52.2274   22.1608 O   0  0  0  0  0  0  0  0  0  0  0  0
    4.9761   59.6177   21.7034 C   0  0  0  0  0  0  0  0  0  0  0  0
    1.8413   51.4020   21.5595 N   0  0  0  0  0  0  0  0  0  0  0  0
    6.9659   63.6374   20.6918 F   0  0  0  0  0  0  0  0  0  0  0  0
    4.4382   59.7973   24.0066 C   0  0  0  0  0  0  0  0  0  0  0  0
    2.5736   54.5690   22.0607 C   0  0  0  0  0  0  0  0  0  0  0  0
    1.6255   50.0854   22.1589 C   0  0  0  0  0  0  0  0  0  0  0  0
    1.4808   54.4072   24.3020 N   0  0  0  0  0  0  0  0  0  0  0  0
    2.7916   56.1814   25.0717 O   0  0  0  0  0  0  0  0  0  0  0  0
    3.2222   50.4407   19.8031 C   0  0  0  0  0  0  0  0  0  0  0  0
    5.0652   58.1991   21.3089 C   0  0  0  0  0  0  0  0  0  0  0  0
    4.3097   56.7447   21.6493 C   0  0  0  0  0  0  0  0  0  0  0  0
    7.5580   59.5172   19.2318 C   0  0  0  0  0  0  0  0  0  0  0  0
    0.7746   53.0548   20.6605 N   0  0  0  0  0  0  0  0  0  0  0  0
    2.9833   51.6530   20.6531 C   0  0  0  0  0  0  0  0  0  0  0  0
    3.1302   55.7665   22.7643 C   0  0  0  0  0  0  0  0  0  0  0  0
    4.0335   59.8457   22.7610 C   0  0  0  0  0  0  0  0  0  0  0  0
    6.4931   60.7246   20.5585 C   0  0  0  0  0  0  0  0  0  0  0  0
  1  4  1  0
  1 11  1  0
  1 13  1  0
  1 24  1  0
  2  9  2  0
  2 21  1  0
  3 22  1  0
  3 26  1  0
  4 16  1  0
  4 18  1  0
  5 22  2  0
  6 12  1  0
  6 28  2  0
  7 18  1  0
  7 19  1  0
  7 26  1  0
  8 14  1  0
  8 28  1  0
  9 23  1  0
  9 28  1  0
 10 17  1  0
 12 21  2  0
 12 27  1  0
 13 17  1  0
 13 25  1  0
 15 27  2  0
 16 26  1  0
 20 25  1  0
 21 22  1  0
M  END
$$$$

     RDKit          3D

 27 28  0  0  0  0  0  0  0  0999 V2000
    1.8258   51.2843   21.4121 N   0  0  0  0  0  0  0  0  0  0  0  0
    2.9576   55.5702   22.9082 C   0  0  0  0  0  0  0  0  0  0  0  0
    5.8331   61.6086   21.5047 C   0  0  0  0  0  0  0  0  0  0  0  0
    5.0133   58.2117   21.4776 C   0  0  0  0  0  0  0  0  0  0  0  0
    4.2774   56.0328   20.8378 O   0  0  0  0  0  0  0  0  0  0  0  0
    1.6272   54.5085   24.6896 C   0  0  0  0  0  0  0  0  0  0  0  0
    2.5262   54.4649   22.1321 C   0  0  0  0  0  0  0  0  0  0  0  0
    4.7561   59.4321   22.1257 C   0  0  0  0  0  0  0  0  0  0  0  0
    1.0112   52.3970   21.6493 S   0  0  0  0  0  0  0  0  0  0  0  0
    6.4341   59.6477   20.4523 C   0  0  0  0  0  0  0  0  0  0  0  0
    1.6193   53.4992   22.5381 C   0  0  0  0  0  0  0  0  0  0  0  0
    2.4642   55.5240   24.2086 C   0  0  0  0  0  0  0  0  0  0  0  0
    5.2289   62.2022   22.4318 O   0  0  0  0  0  0  0  0  0  0  0  0
    2.4842   50.2066   23.5727 C   0  0  0  0  0  0  0  0  0  0  0  0
    4.3478   56.8949   21.7173 C   0  0  0  0  0  0  0  0  0  0  0  0
    2.7984   51.3263   20.5710 C   0  0  0  0  0  0  0  0  0  0  0  0
    5.5948   60.3899   21.4040 C   0  0  0  0  0  0  0  0  0  0  0  0
    7.6201   59.8486   19.4416 C   0  0  0  0  0  0  0  0  0  0  0  0
    3.3042   50.0403   19.6730 C   0  0  0  0  0  0  0  0  0  0  0  0
    1.6885   49.9887   22.1905 C   0  0  0  0  0  0  0  0  0  0  0  0
    5.9294   58.3179   20.6379 N   0  0  0  0  0  0  0  0  0  0  0  0
   -0.0744   52.0170   22.0758 O   0  0  0  0  0  0  0  0  0  0  0  0
    2.9180   56.3710   25.2370 O   0  0  0  0  0  0  0  0  0  0  0  0
    1.1871   53.4871   23.8719 C   0  0  0  0  0  0  0  0  0  0  0  0
    3.9098   56.6135   22.7720 N   0  0  0  0  0  0  0  0  0  0  0  0
    4.4097   59.5517   24.1730 C   0  0  0  0  0  0  0  0  0  0  0  0
    3.8713   59.6532   23.0880 C   0  0  0  0  0  0  0  0  0  0  0  0
  1  9  1  0
  1 16  1  0
  1 20  1  0
  2  7  2  0
  2 12  1  0
  2 25  1  0
  3 13  2  0
  3 17  1  0
  4  8  1  0
  4 15  1  0
  4 21  1  0
  5 15  2  0
  6 12  2  0
  6 24  1  0
  7 11  1  0
  8 17  1  0
  8 27  1  0
  9 22  1  0
 10 17  1  0
 10 18  1  0
 10 21  1  0
 11 22  1  0
 11 24  2  0
 12 23  1  0
 14 20  1  0
 15 25  1  0
 16 19  1  0
 26 27  1  0
M  END
$$$$

     RDKit          3D

 30 31  0  0  0  0  0  0  0  0999 V2000
    4.3826   56.9192   21.7612 C   0  0  0  0  0  0  0  0  0  0  0  0
    0.8629   52.5362   21.6299 C   0  0  0  0  0  0  0  0  0  0  0  0
    5.8616   57.9869   20.5219 N   0  0  0  0  0  0  0  0  0  0  0  0
    2.3081   54.4788   22.3022 C   0  0  0  0  0  0  0  0  0  0  0  0
    4.8892   59.2577   21.9974 C   0  0  0  0  0  0  0  0  0  0  0  0
    7.0359   63.5406   20.6656 O   0  0  0  0  0  0  0  0  0  0  0  0
    2.8304   55.5106   23.1737 C   0  0  0  0  0  0  0  0  0  0  0  0
    6.3781   59.4033   20.4235 C   0  0  0  0  0  0  0  0  0  0  0  0
    5.7847   61.5447   21.7337 C   0  0  0  0  0  0  0  0  0  0  0  0
    1.6921   51.4011   21.4476 N   0  0  0  0  0  0  0  0  0  0  0  0
    6.7195   62.0270   20.8082 C   0  0  0  0  0  0  0  0  0  0  0  0
    2.2922   55.4508   24.4673 C   0  0  0  0  0  0  0  0  0  0  0  0
    1.3464   53.4378   22.8085 C   0  0  0  0  0  0  0  0  0  0  0  0
    4.7786   57.9793   21.5743 C   0  0  0  0  0  0  0  0  0  0  0  0
    1.1509   50.2373   22.2671 C   0  0  0  0  0  0  0  0  0  0  0  0
    3.6588   59.6062   23.0350 C   0  0  0  0  0  0  0  0  0  0  0  0
    7.4901   59.4669   19.3745 C   0  0  0  0  0  0  0  0  0  0  0  0
    1.3926   54.3992   25.0045 C   0  0  0  0  0  0  0  0  0  0  0  0
    5.5074   60.1111   21.5150 C   0  0  0  0  0  0  0  0  0  0  0  0
    4.2929   55.9699   20.9401 O   0  0  0  0  0  0  0  0  0  0  0  0
    3.6743   56.6243   22.8047 N   0  0  0  0  0  0  0  0  0  0  0  0
    3.1815   50.5132   19.7168 C   0  0  0  0  0  0  0  0  0  0  0  0
    0.9065   53.3845   24.0335 C   0  0  0  0  0  0  0  0  0  0  0  0
    2.7230   56.4139   25.3374 O   0  0  0  0  0  0  0  0  0  0  0  0
    2.7819   51.7079   20.5903 C   0  0  0  0  0  0  0  0  0  0  0  0
    0.2688   52.9856   20.4174 O   0  0  0  0  0  0  0  0  0  0  0  0
    2.0365   50.4412   23.3251 N   0  0  0  0  0  0  0  0  0  0  0  0
   -0.3750   52.2039   21.8402 O   0  0  0  0  0  0  0  0  0  0  0  0
    5.1385   62.1381   22.5361 O   0  0  0  0  0  0  0  0  0  0  0  0
    4.1640   59.6574   24.2270 C   0  0  0  0  0  0  0  0  0  0  0  0
  1 14  1  0
  1 20  2  0
  1 21  1  0
  2 10  1  0
  2 13  1  0
  2 26  1  0
  2 28  1  0
  3  8  1  0
  3 14  1  0
  4  7  2  0
  4 13  1  0
  5 14  1  0
  5 16  1  0
  5 19  1  0
  6 11  1  0
  7 12  1  0
  7 21  1  0
  8 17  1  0
  8 19  1  0
  9 11  1  0
  9 19  1  0
  9 29  2  0
 10 15  1  0
 10 25  1  0
 12 18  2  0
 12 24  1  0
 13 23  2  0
 15 27  1  0
 16 30  1  0
 18 23  1  0
 22 25  1  0
M  END
$$$$

     RDKit          3D

 28 30  0  0  0  0  0  0  0  0999 V2000
    4.2871   56.7664   21.9329 C   0  0  0  0  0  0  0  0  0  0  0  0
    6.8052   62.2488   20.6152 C   0  0  0  0  0  0  0  0  0  0  0  0
    4.2603   55.9069   20.8587 O   0  0  0  0  0  0  0  0  0  0  0  0
    4.8084   59.5341   22.0854 C   0  0  0  0  0  0  0  0  0  0  0  0
    5.7646   61.5911   21.6901 C   0  0  0  0  0  0  0  0  0  0  0  0
    1.6051   54.3057   24.8194 C   0  0  0  0  0  0  0  0  0  0  0  0
    2.4625   55.2326   24.2350 C   0  0  0  0  0  0  0  0  0  0  0  0
    1.3934   51.8990   21.6918 S   0  0  0  0  0  0  0  0  0  0  0  0
    2.3994   54.2324   22.2432 C   0  0  0  0  0  0  0  0  0  0  0  0
    6.5737   59.4608   20.2565 C   0  0  0  0  0  0  0  0  0  0  0  0
    3.0523   51.7264   20.7942 C   0  0  0  0  0  0  0  0  0  0  0  0
    2.8647   55.3920   22.7756 C   0  0  0  0  0  0  0  0  0  0  0  0
    7.6409   59.7757   19.0823 C   0  0  0  0  0  0  0  0  0  0  0  0
    6.9193   63.5530   20.5474 O   0  0  0  0  0  0  0  0  0  0  0  0
    5.9404   58.1762   20.3746 N   0  0  0  0  0  0  0  0  0  0  0  0
    1.5458   50.4843   22.3985 C   0  0  0  0  0  0  0  0  0  0  0  0
    4.0033   59.8137   23.2001 C   0  0  0  0  0  0  0  0  0  0  0  0
    1.0047   53.2057   20.3862 O   0  0  0  0  0  0  0  0  0  0  0  0
   -0.1071   51.8070   21.7597 O   0  0  0  0  0  0  0  0  0  0  0  0
    1.1638   53.2817   23.9343 C   0  0  0  0  0  0  0  0  0  0  0  0
    7.4647   61.2559   19.6142 C   0  0  0  0  0  0  0  0  0  0  0  0
    2.8593   56.3494   24.9642 O   0  0  0  0  0  0  0  0  0  0  0  0
    5.6014   60.1535   21.4892 C   0  0  0  0  0  0  0  0  0  0  0  0
    1.7066   53.4679   22.5194 C   0  0  0  0  0  0  0  0  0  0  0  0
    3.2155   50.6459   20.1329 C   0  0  0  0  0  0  0  0  0  0  0  0
    2.3374   50.4136   23.6576 C   0  0  0  0  0  0  0  0  0  0  0  0
    5.1898   58.1800   21.5096 C   0  0  0  0  0  0  0  0  0  0  0  0
    5.2368   62.3379   22.4532 O   0  0  0  0  0  0  0  0  0  0  0  0
  1  3  1  0
  1 12  1  0
  1 27  1  0
  2  5  1  0
  2 14  1  0
  2 21  2  0
  4 17  1  0
  4 23  2  0
  4 27  1  0
  5 23  1  0
  5 28  2  0
  6  7  2  0
  6 20  1  0
  7 12  1  0
  7 22  1  0
  8 11  1  0
  8 16  1  0
  8 18  1  0
  8 19  1  0
  8 24  1  0
  9 12  2  0
  9 24  1  0
 10 13  2  0
 10 15  1  0
 10 23  1  0
 11 25  2  0
 13 21  1  0
 15 27  1  0
 16 26  1  0
 20 24  2  0
M  END
$$$$

     RDKit          3D

 28 29  0  0  0  0  0  0  0  0999 V2000
    4.2970   55.9198   20.9715 O   0  0  0  0  0  0  0  0  0  0  0  0
    3.0586   55.4157   22.9773 C   0  0  0  0  0  0  0  0  0  0  0  0
    5.9586   58.2693   20.5470 N   0  0  0  0  0  0  0  0  0  0  0  0
    2.6324   54.4304   22.0098 C   0  0  0  0  0  0  0  0  0  0  0  0
    5.3873   62.1362   22.2636 O   0  0  0  0  0  0  0  0  0  0  0  0
    7.1072   62.2364   20.5563 C   0  0  0  0  0  0  0  0  0  0  0  0
    6.2642   61.2816   21.1353 C   0  0  0  0  0  0  0  0  0  0  0  0
    1.1385   53.5912   23.8216 C   0  0  0  0  0  0  0  0  0  0  0  0
    4.5119   59.9713   24.3405 C   0  0  0  0  0  0  0  0  0  0  0  0
    0.6684   52.8817   20.0364 O   0  0  0  0  0  0  0  0  0  0  0  0
    4.0429   59.8599   23.0304 C   0  0  0  0  0  0  0  0  0  0  0  0
    2.5256   55.5399   24.3720 C   0  0  0  0  0  0  0  0  0  0  0  0
    3.1073   50.4773   19.8015 C   0  0  0  0  0  0  0  0  0  0  0  0
    7.7432   59.7290   19.3351 C   0  0  0  0  0  0  0  0  0  0  0  0
    2.4442   50.2278   23.4279 C   0  0  0  0  0  0  0  0  0  0  0  0
    4.9937   58.1200   21.4385 C   0  0  0  0  0  0  0  0  0  0  0  0
    1.6455   54.5278   24.7722 C   0  0  0  0  0  0  0  0  0  0  0  0
    3.7775   56.4365   22.6975 N   0  0  0  0  0  0  0  0  0  0  0  0
    3.1273   51.7248   20.5691 C   0  0  0  0  0  0  0  0  0  0  0  0
    1.5596   50.2310   22.1202 C   0  0  0  0  0  0  0  0  0  0  0  0
    6.4819   59.5562   20.3632 C   0  0  0  0  0  0  0  0  0  0  0  0
    4.9625   59.5265   22.0235 C   0  0  0  0  0  0  0  0  0  0  0  0
   -0.3930   52.1148   21.9010 O   0  0  0  0  0  0  0  0  0  0  0  0
    1.5709   53.4366   22.5058 C   0  0  0  0  0  0  0  0  0  0  0  0
    2.9703   56.4566   25.3897 O   0  0  0  0  0  0  0  0  0  0  0  0
    0.9366   52.3728   21.4232 S   0  0  0  0  0  0  0  0  0  0  0  0
    5.6435   60.8848   21.6538 C   0  0  0  0  0  0  0  0  0  0  0  0
    4.3952   56.6344   21.6070 C   0  0  0  0  0  0  0  0  0  0  0  0
  1 28  2  0
  2  4  2  0
  2 12  1  0
  2 18  1  0
  3 16  2  0
  3 21  1  0
  4 24  1  0
  5 27  1  0
  6  7  1  0
  7 21  2  0
  7 27  1  0
  8 17  1  0
  8 24  2  0
  9 11  1  0
 10 26  1  0
 11 22  1  0
 12 17  2  0
 12 25  1  0
 13 19  1  0
 14 21  1  0
 15 20  1  0
 16 22  1  0
 16 28  1  0
 18 28  1  0
 19 26  1  0
 20 26  1  0
 22 27  2  0
 23 26  1  0
 24 26  1  0
M  END
$$$$

     RDKit          3D

 25 27  0  0  0  0  0  0  0  0999 V2000
    2.4278   55.3011   23.9593 C   0  0  0  0  0  0  0  0  0  0  0  0
    0.7825   52.9477   20.1658 O   0  0  0  0  0  0  0  0  0  0  0  0
    7.0332   63.3769   20.6572 O   0  0  0  0  0  0  0  0  0  0  0  0
    6.0085   58.2018   20.5516 N   0  0  0  0  0  0  0  0  0  0  0  0
    5.8689   61.7307   21.8364 C   0  0  0  0  0  0  0  0  0  0  0  0
    1.4642   53.5882   22.5422 C   0  0  0  0  0  0  0  0  0  0  0  0
    4.7494   59.3842   21.9953 C   0  0  0  0  0  0  0  0  0  0  0  0
    6.3712   59.1955   20.4750 C   0  0  0  0  0  0  0  0  0  0  0  0
    4.0474   57.2967   22.7413 C   0  0  0  0  0  0  0  0  0  0  0  0
    2.5070   54.3635   21.8734 C   0  0  0  0  0  0  0  0  0  0  0  0
    5.1616   62.1438   22.3374 O   0  0  0  0  0  0  0  0  0  0  0  0
    1.8179   50.3117   22.7604 C   0  0  0  0  0  0  0  0  0  0  0  0
    0.8281   52.3504   21.5671 S   0  0  0  0  0  0  0  0  0  0  0  0
    2.8174   56.1517   24.8714 O   0  0  0  0  0  0  0  0  0  0  0  0
    3.0023   50.4500   19.9260 C   0  0  0  0  0  0  0  0  0  0  0  0
    3.9369   59.9662   23.1320 C   0  0  0  0  0  0  0  0  0  0  0  0
   -0.5906   51.8650   22.0227 O   0  0  0  0  0  0  0  0  0  0  0  0
    4.8891   57.8473   21.4536 C   0  0  0  0  0  0  0  0  0  0  0  0
    3.0667   55.5001   22.6711 C   0  0  0  0  0  0  0  0  0  0  0  0
    4.3685   59.8608   24.5014 C   0  0  0  0  0  0  0  0  0  0  0  0
    5.5126   60.2686   21.3335 C   0  0  0  0  0  0  0  0  0  0  0  0
    2.9070   51.4482   20.8817 C   0  0  0  0  0  0  0  0  0  0  0  0
    6.6816   61.8960   20.8006 C   0  0  0  0  0  0  0  0  0  0  0  0
    1.3982   54.1207   24.2096 N   0  0  0  0  0  0  0  0  0  0  0  0
    7.1031   59.9917   19.9716 C   0  0  0  0  0  0  0  0  0  0  0  0
  1 14  1  0
  1 19  1  0
  1 24  1  0
  2 13  1  0
  3 23  1  0
  4  8  1  0
  4 18  1  0
  5 11  1  0
  5 21  1  0
  5 23  1  0
  6 10  1  0
  6 13  1  0
  6 24  1  0
  7 16  1  0
  7 18  1  0
  7 21  1  0
  8 21  1  0
  8 25  1  0
  9 18  1  0
  9 19  1  0
 10 19  1  0
 12 13  1  0
 13 17  1  0
 13 22  1  0
 15 22  1  0
 16 20  1  0
 23 25  1  0
M  END
$$$$

     RDKit          3D

 31 33  0  0  0  0  0  0  0  0999 V2000
    4.3327   56.6046   21.5413 C   0  0  0  0  0  0  0  0  0  0  0  0
    2.3728   55.4833   24.2711 C   0  0  0  0  0  0  0  0  0  0  0  0
    1.1025   52.1223   21.6042 S   0  0  0  0  0  0  0  0  0  0  0  0
    6.0223   57.9487   20.5430 N   0  0  0  0  0  0  0  0  0  0  0  0
    4.5978   59.2842   22.3001 C   0  0  0  0  0  0  0  0  0  0  0  0
    7.3975   59.6024   19.5001 C   0  0  0  0  0  0  0  0  0  0  0  0
    6.6860   61.9681   20.6502 C   0  0  0  0  0  0  0  0  0  0  0  0
    0.7549   52.8970   20.4070 O   0  0  0  0  0  0  0  0  0  0  0  0
    2.9028   55.6177   23.0179 C   0  0  0  0  0  0  0  0  0  0  0  0
    1.6544   53.4930   22.6477 C   0  0  0  0  0  0  0  0  0  0  0  0
    3.7979   59.7104   22.9025 C   0  0  0  0  0  0  0  0  0  0  0  0
    1.6170   54.3663   24.6673 N   0  0  0  0  0  0  0  0  0  0  0  0
    2.1626   50.2070   23.7280 C   0  0  0  0  0  0  0  0  0  0  0  0
    5.4349   62.0334   22.0495 O   0  0  0  0  0  0  0  0  0  0  0  0
   -0.3277   52.0961   21.9087 O   0  0  0  0  0  0  0  0  0  0  0  0
    5.3864   59.8402   21.4540 C   0  0  0  0  0  0  0  0  0  0  0  0
    1.2457   50.2080   22.5457 N   0  0  0  0  0  0  0  0  0  0  0  0
    2.5460   54.5178   22.1034 C   0  0  0  0  0  0  0  0  0  0  0  0
    4.3828   55.9439   20.8933 O   0  0  0  0  0  0  0  0  0  0  0  0
    4.1950   59.5211   24.2175 C   0  0  0  0  0  0  0  0  0  0  0  0
    2.7347   50.6061   20.1707 C   0  0  0  0  0  0  0  0  0  0  0  0
    6.8220   63.2659   20.6120 O   0  0  0  0  0  0  0  0  0  0  0  0
    5.0304   57.9195   21.4604 C   0  0  0  0  0  0  0  0  0  0  0  0
    1.2079   53.3093   23.9669 C   0  0  0  0  0  0  0  0  0  0  0  0
    3.8297   56.6194   22.5826 N   0  0  0  0  0  0  0  0  0  0  0  0
    2.8077   56.3630   25.1553 O   0  0  0  0  0  0  0  0  0  0  0  0
    7.5753   60.8926   19.5673 C   0  0  0  0  0  0  0  0  0  0  0  0
    6.4419   59.1582   20.3301 C   0  0  0  0  0  0  0  0  0  0  0  0
    5.7773   61.1979   21.3958 C   0  0  0  0  0  0  0  0  0  0  0  0
    3.2455   58.9625   23.4007 C   0  0  0  0  0  0  0  0  0  0  0  0
    2.3988   51.3829   21.0476 C   0  0  0  0  0  0  0  0  0  0  0  0
  1 19  2  0
  1 23  1  0
  1 25  1  0
  2  9  1  0
  2 12  1  0
  2 26  2  0
  3  8  1  0
  3 10  1  0
  3 15  1  0
  3 17  1  0
  3 31  1  0
  4 23  2  0
  4 28  1  0
  5 11  1  0
  5 16  2  0
  5 23  1  0
  6 27  1  0
  6 28  2  0
  7 22  1  0
  7 27  2  0
  7 29  1  0
  9 18  2  0
  9 25  1  0
 10 18  1  0
 10 24  1  0
 11 30  1  0
 12 24  2  0
 13 17  1  0
 14 29  2  0
 16 28  1  0
 16 29  1  0
 20 30  1  0
 21 31  2  0
M  END
$$$$

     RDKit          3D

 27 28  0  0  0  0  0  0  0  0999 V2000
    4.2969   56.8171   21.8601 C   0  0  0  0  0  0  0  0  0  0  0  0
    1.9974   51.4851   21.4281 N   0  0  0  0  0  0  0  0  0  0  0  0
    5.3208   60.0638   21.5352 C   0  0  0  0  0  0  0  0  0  0  0  0
    3.6929   56.4620   22.8859 N   0  0  0  0  0  0  0  0  0  0  0  0
    2.3567   55.5152   24.3925 C   0  0  0  0  0  0  0  0  0  0  0  0
    5.3356   62.0717   22.1576 O   0  0  0  0  0  0  0  0  0  0  0  0
    2.4690   54.4682   22.2126 C   0  0  0  0  0  0  0  0  0  0  0  0
    1.7513   50.3076   22.3647 C   0  0  0  0  0  0  0  0  0  0  0  0
    1.4117   54.5881   24.6729 C   0  0  0  0  0  0  0  0  0  0  0  0
    6.7410   62.0852   20.8729 C   0  0  0  0  0  0  0  0  0  0  0  0
    4.5590   59.3478   22.0331 C   0  0  0  0  0  0  0  0  0  0  0  0
    2.8474   56.4106   25.2781 O   0  0  0  0  0  0  0  0  0  0  0  0
    3.2274   51.4869   20.6215 C   0  0  0  0  0  0  0  0  0  0  0  0
   -0.3807   52.0625   21.7453 O   0  0  0  0  0  0  0  0  0  0  0  0
    4.4074   59.5542   24.1795 C   0  0  0  0  0  0  0  0  0  0  0  0
    1.4290   53.5773   22.4718 C   0  0  0  0  0  0  0  0  0  0  0  0
    4.9007   58.0394   21.5720 C   0  0  0  0  0  0  0  0  0  0  0  0
    2.8407   55.5072   23.1160 C   0  0  0  0  0  0  0  0  0  0  0  0
    4.3393   55.8999   20.9510 O   0  0  0  0  0  0  0  0  0  0  0  0
    7.5677   59.6021   19.3178 C   0  0  0  0  0  0  0  0  0  0  0  0
    0.8728   53.5887   23.7575 C   0  0  0  0  0  0  0  0  0  0  0  0
    3.2188   50.1513   19.7542 C   0  0  0  0  0  0  0  0  0  0  0  0
    5.9090   58.2170   20.5696 N   0  0  0  0  0  0  0  0  0  0  0  0
    3.8309   59.5560   22.8230 C   0  0  0  0  0  0  0  0  0  0  0  0
    0.8252   53.2433   20.2635 O   0  0  0  0  0  0  0  0  0  0  0  0
    5.8572   61.0895   21.3470 C   0  0  0  0  0  0  0  0  0  0  0  0
    6.4093   59.5991   20.4334 C   0  0  0  0  0  0  0  0  0  0  0  0
  1  4  1  0
  1 17  1  0
  1 19  2  0
  2  8  1  0
  2 13  1  0
  2 16  1  0
  3 11  1  0
  3 26  1  0
  3 27  1  0
  4 18  2  3
  5  9  1  0
  5 12  1  0
  5 18  1  0
  6 26  1  0
  7 16  1  0
  7 18  1  0
  9 21  1  0
 10 26  1  0
 11 17  1  0
 11 24  1  0
 13 22  1  0
 14 25  1  0
 15 24  1  0
 16 21  1  0
 16 25  1  0
 17 23  1  0
 20 27  1  0
 23 27  1  0
M  END
$$$$

     RDKit          3D

 29 31  0  0  0  0  0  0  0  0999 V2000
    5.2287   58.2497   21.2878 C   0  0  0  0  0  0  0  0  0  0  0  0
    5.7157   61.4004   21.6997 C   0  0  0  0  0  0  0  0  0  0  0  0
    2.6359   55.4973   24.2376 C   0  0  0  0  0  0  0  0  0  0  0  0
    0.6796   52.9207   20.2213 O   0  0  0  0  0  0  0  0  0  0  0  0
    1.1943   53.7110   23.8165 C   0  0  0  0  0  0  0  0  0  0  0  0
    6.1553   58.2115   20.3701 N   0  0  0  0  0  0  0  0  0  0  0  0
    1.3986   50.1271   22.1572 C   0  0  0  0  0  0  0  0  0  0  0  0
    2.9547   51.5903   20.6537 C   0  0  0  0  0  0  0  0  0  0  0  0
    5.6003   60.0128   21.3179 C   0  0  0  0  0  0  0  0  0  0  0  0
    3.2032   55.6801   22.8788 C   0  0  0  0  0  0  0  0  0  0  0  0
   -0.2167   51.8236   21.7943 O   0  0  0  0  0  0  0  0  0  0  0  0
    6.8821   63.5897   20.7455 O   0  0  0  0  0  0  0  0  0  0  0  0
    4.0961   56.7496   22.6553 N   0  0  0  0  0  0  0  0  0  0  0  0
    2.3398   50.2446   23.2283 C   0  0  0  0  0  0  0  0  0  0  0  0
    3.0624   50.3554   19.7750 C   0  0  0  0  0  0  0  0  0  0  0  0
    4.5841   59.8044   24.1350 C   0  0  0  0  0  0  0  0  0  0  0  0
    7.6200   59.6728   19.4462 C   0  0  0  0  0  0  0  0  0  0  0  0
    6.7476   62.2230   20.8847 C   0  0  0  0  0  0  0  0  0  0  0  0
    1.1215   52.3921   21.3793 S   0  0  0  0  0  0  0  0  0  0  0  0
    1.8262   54.6442   24.7187 C   0  0  0  0  0  0  0  0  0  0  0  0
    3.8795   59.8373   22.9201 C   0  0  0  0  0  0  0  0  0  0  0  0
    7.4285   61.1914   20.0120 C   0  0  0  0  0  0  0  0  0  0  0  0
    3.0016   56.4070   24.9433 N   0  0  0  0  0  0  0  0  0  0  0  0
    4.4720   56.0247   20.6832 O   0  0  0  0  0  0  0  0  0  0  0  0
    6.6429   59.5011   20.3755 C   0  0  0  0  0  0  0  0  0  0  0  0
    4.5805   56.9124   21.4138 C   0  0  0  0  0  0  0  0  0  0  0  0
    1.7393   53.7318   22.4604 C   0  0  0  0  0  0  0  0  0  0  0  0
    4.9861   59.5606   21.9604 C   0  0  0  0  0  0  0  0  0  0  0  0
    2.6428   54.5696   22.0185 C   0  0  0  0  0  0  0  0  0  0  0  0
  1  6  1  0
  1 26  1  0
  1 28  1  0
  2  9  2  0
  2 18  1  0
  3 10  2  0
  3 20  1  0
  3 23  1  0
  4 19  1  0
  5 20  2  0
  5 27  1  0
  6 25  1  0
  7 14  1  0
  7 19  1  0
  8 15  1  0
  8 19  1  0
  9 25  1  0
  9 28  1  0
 10 13  1  0
 10 29  1  0
 11 19  1  0
 12 18  1  0
 13 26  1  0
 16 21  1  0
 17 22  1  0
 17 25  2  0
 18 22  2  0
 19 27  1  0
 21 28  1  0
 24 26  2  0
 27 29  2  0
M  END
$$$$

     RDKit          3D

 29 30  0  0  0  0  0  0  0  0999 V2000
    4.3416   55.9227   20.8253 O   0  0  0  0  0  0  0  0  0  0  0  0
    5.0660   58.0845   21.3862 C   0  0  0  0  0  0  0  0  0  0  0  0
    2.9978   51.6470   20.6471 C   0  0  0  0  0  0  0  0  0  0  0  0
    3.2138   55.4545   22.8989 C   0  0  0  0  0  0  0  0  0  0  0  0
    2.7423   54.3546   22.2188 C   0  0  0  0  0  0  0  0  0  0  0  0
    4.0429   56.5137   22.7036 N   0  0  0  0  0  0  0  0  0  0  0  0
    3.7781   59.6427   22.9357 C   0  0  0  0  0  0  0  0  0  0  0  0
    5.3130   62.1240   22.1596 O   0  0  0  0  0  0  0  0  0  0  0  0
    2.5747   50.1957   23.5068 C   0  0  0  0  0  0  0  0  0  0  0  0
    1.7460   54.5050   24.5880 C   0  0  0  0  0  0  0  0  0  0  0  0
    1.2640   52.5350   21.6191 S   0  0  0  0  0  0  0  0  0  0  0  0
    7.6994   59.6950   19.2741 C   0  0  0  0  0  0  0  0  0  0  0  0
    6.5719   59.6374   20.3655 C   0  0  0  0  0  0  0  0  0  0  0  0
    2.0444   51.3764   21.4754 N   0  0  0  0  0  0  0  0  0  0  0  0
    4.9669   59.5033   21.8199 C   0  0  0  0  0  0  0  0  0  0  0  0
    2.7835   55.4428   24.1966 C   0  0  0  0  0  0  0  0  0  0  0  0
   -0.0740   52.3037   21.9208 O   0  0  0  0  0  0  0  0  0  0  0  0
    4.3695   59.8514   24.0658 C   0  0  0  0  0  0  0  0  0  0  0  0
    6.9327   63.6778   20.6300 Cl  0  0  0  0  0  0  0  0  0  0  0  0
    5.7619   60.7807   21.2696 C   0  0  0  0  0  0  0  0  0  0  0  0
    3.1687   50.3303   19.7623 C   0  0  0  0  0  0  0  0  0  0  0  0
    1.3319   53.4787   23.9090 C   0  0  0  0  0  0  0  0  0  0  0  0
    0.8432   52.9176   20.4974 O   0  0  0  0  0  0  0  0  0  0  0  0
    1.8208   53.4408   22.5742 C   0  0  0  0  0  0  0  0  0  0  0  0
    5.9903   58.3205   20.4927 N   0  0  0  0  0  0  0  0  0  0  0  0
    6.8687   61.9890   20.5881 C   0  0  0  0  0  0  0  0  0  0  0  0
    1.7547   50.1468   22.0934 C   0  0  0  0  0  0  0  0  0  0  0  0
    2.9974   56.3170   25.1500 O   0  0  0  0  0  0  0  0  0  0  0  0
    4.4644   56.7161   21.7660 C   0  0  0  0  0  0  0  0  0  0  0  0
  1 29  1  0
  2 15  1  0
  2 25  1  0
  2 29  1  0
  3 14  1  0
  3 21  1  0
  4  5  2  0
  4  6  1  0
  4 16  1  0
  5 24  1  0
  6 29  1  0
  7 15  1  0
  7 18  1  0
  8 20  1  0
  9 27  1  0
 10 16  2  0
 10 22  1  0
 11 14  1  0
 11 17  1  0
 11 23  1  0
 11 24  1  0
 12 13  1  0
 13 20  1  0
 13 25  1  0
 14 27  1  0
 15 20  1  0
 16 28  1  0
 19 26  1  0
 20 26  1  0
 22 24  2  0
M  END
$$$$

     RDKit          3D

 26 27  0  0  0  0  0  0  0  0999 V2000
    5.9304   60.7964   21.3042 C   0  0  0  0  0  0  0  0  0  0  0  0
    1.8433   54.5624   24.6506 C   0  0  0  0  0  0  0  0  0  0  0  0
    1.6609   53.6014   22.5046 C   0  0  0  0  0  0  0  0  0  0  0  0
    4.3424   56.7498   21.6192 C   0  0  0  0  0  0  0  0  0  0  0  0
    6.3592   62.3325   21.2195 C   0  0  0  0  0  0  0  0  0  0  0  0
    5.0162   59.4115   21.9002 C   0  0  0  0  0  0  0  0  0  0  0  0
    6.9836   59.3923   19.8712 C   0  0  0  0  0  0  0  0  0  0  0  0
    3.8213   56.5126   22.8074 N   0  0  0  0  0  0  0  0  0  0  0  0
    0.8880   52.5158   21.5057 S   0  0  0  0  0  0  0  0  0  0  0  0
    6.0970   58.2389   20.3883 N   0  0  0  0  0  0  0  0  0  0  0  0
    2.5510   54.7050   22.1067 C   0  0  0  0  0  0  0  0  0  0  0  0
    5.4030   62.3265   22.2428 O   0  0  0  0  0  0  0  0  0  0  0  0
    2.8088   51.7472   20.5623 C   0  0  0  0  0  0  0  0  0  0  0  0
    2.6049   55.5755   24.1850 C   0  0  0  0  0  0  0  0  0  0  0  0
    3.9874   59.6685   23.0490 C   0  0  0  0  0  0  0  0  0  0  0  0
    6.9900   60.8612   20.2803 C   0  0  0  0  0  0  0  0  0  0  0  0
    3.0790   50.5717   19.7794 C   0  0  0  0  0  0  0  0  0  0  0  0
    6.8332   63.6166   20.7374 F   0  0  0  0  0  0  0  0  0  0  0  0
   -0.5147   52.1672   22.0392 O   0  0  0  0  0  0  0  0  0  0  0  0
    4.4779   59.3783   24.4222 C   0  0  0  0  0  0  0  0  0  0  0  0
    1.2628   53.6000   23.8959 C   0  0  0  0  0  0  0  0  0  0  0  0
    5.1268   58.0472   21.3508 C   0  0  0  0  0  0  0  0  0  0  0  0
    0.7286   53.0969   20.1241 O   0  0  0  0  0  0  0  0  0  0  0  0
    2.9799   55.4514   22.8726 C   0  0  0  0  0  0  0  0  0  0  0  0
    4.2683   55.8645   20.8341 O   0  0  0  0  0  0  0  0  0  0  0  0
    1.7662   50.3314   22.8345 C   0  0  0  0  0  0  0  0  0  0  0  0
  1  5  1  0
  1  6  2  0
  1 16  1  0
  2 14  2  0
  2 21  1  0
  3  9  1  0
  3 11  1  0
  3 21  2  0
  4  8  1  0
  4 22  1  0
  4 25  2  0
  5 12  1  0
  5 18  1  0
  6 15  1  0
  6 22  1  0
  7 10  1  0
  7 16  2  0
  8 24  1  0
  9 13  1  0
  9 19  1  0
  9 23  1  0
  9 26  1  0
 10 22  2  0
 11 24  2  0
 13 17  1  0
 14 24  1  0
 15 20  1  0
M  END
$$$$

     RDKit          3D

 28 29  0  0  0  0  0  0  0  0999 V2000
    4.3805   57.0382   21.7916 C   0  0  0  0  0  0  0  0  0  0  0  0
    7.4472   59.7738   19.6780 C   0  0  0  0  0  0  0  0  0  0  0  0
    1.6455   53.3833   22.2578 C   0  0  0  0  0  0  0  0  0  0  0  0
    5.8541   61.3255   21.5567 C   0  0  0  0  0  0  0  0  0  0  0  0
    5.7352   58.2199   20.7639 N   0  0  0  0  0  0  0  0  0  0  0  0
    3.1246   51.1995   20.6348 C   0  0  0  0  0  0  0  0  0  0  0  0
    2.1558   50.2078   23.2884 C   0  0  0  0  0  0  0  0  0  0  0  0
    3.7496   56.4840   22.8555 N   0  0  0  0  0  0  0  0  0  0  0  0
    5.5032   59.9419   21.4950 C   0  0  0  0  0  0  0  0  0  0  0  0
    2.7944   56.5857   25.2015 O   0  0  0  0  0  0  0  0  0  0  0  0
    2.5801   54.2233   21.7777 C   0  0  0  0  0  0  0  0  0  0  0  0
    4.4750   59.6125   24.3815 C   0  0  0  0  0  0  0  0  0  0  0  0
    1.2503   50.3360   21.9598 C   0  0  0  0  0  0  0  0  0  0  0  0
    1.6115   54.5818   24.5810 N   0  0  0  0  0  0  0  0  0  0  0  0
    0.6681   52.6250   20.1746 O   0  0  0  0  0  0  0  0  0  0  0  0
    2.5102   55.6320   24.2352 C   0  0  0  0  0  0  0  0  0  0  0  0
    3.9492   59.5095   23.0451 C   0  0  0  0  0  0  0  0  0  0  0  0
    2.9713   50.2061   19.5156 C   0  0  0  0  0  0  0  0  0  0  0  0
    6.9583   63.7284   20.7006 O   0  0  0  0  0  0  0  0  0  0  0  0
    1.8032   51.4947   21.2694 C   0  0  0  0  0  0  0  0  0  0  0  0
    5.3232   62.0309   22.2975 O   0  0  0  0  0  0  0  0  0  0  0  0
    4.4023   56.1727   20.8842 O   0  0  0  0  0  0  0  0  0  0  0  0
    5.0392   58.0442   21.4620 C   0  0  0  0  0  0  0  0  0  0  0  0
    6.4399   59.1627   20.4587 C   0  0  0  0  0  0  0  0  0  0  0  0
    3.0045   55.4004   22.6592 C   0  0  0  0  0  0  0  0  0  0  0  0
    6.8775   62.3400   20.7387 C   0  0  0  0  0  0  0  0  0  0  0  0
    1.2314   53.6175   23.5211 C   0  0  0  0  0  0  0  0  0  0  0  0
    4.6183   59.2829   22.1244 C   0  0  0  0  0  0  0  0  0  0  0  0
  1  8  1  0
  1 22  2  0
  1 23  1  0
  2 24  1  0
  3 11  1  0
  3 20  1  0
  3 27  1  0
  4  9  1  0
  4 21  2  0
  4 26  1  0
  5 23  1  0
  5 24  1  0
  6 18  1  0
  6 20  1  0
  7 13  1  0
  8 25  2  3
  9 24  1  0
  9 28  1  0
 10 16  1  0
 11 25  1  0
 12 17  1  0
 13 20  1  0
 14 16  1  0
 14 27  1  0
 15 20  1  0
 16 25  1  0
 17 28  1  0
 19 26  1  0
 23 28  1  0
M  END
$$$$

     RDKit          3D

 29 30  0  0  0  0  0  0  0  0999 V2000
    4.3724   56.7523   21.6249 C   0  0  0  0  0  0  0  0  0  0  0  0
    5.3210   62.2061   22.2464 O   0  0  0  0  0  0  0  0  0  0  0  0
    0.9848   52.5324   21.6429 S   0  0  0  0  0  0  0  0  0  0  0  0
    1.5717   50.0407   22.4291 C   0  0  0  0  0  0  0  0  0  0  0  0
    6.8515   63.6327   20.6504 O   0  0  0  0  0  0  0  0  0  0  0  0
    2.5806   55.6550   24.3785 C   0  0  0  0  0  0  0  0  0  0  0  0
    4.5093   59.3417   22.2676 C   0  0  0  0  0  0  0  0  0  0  0  0
    1.1804   53.7291   23.9444 C   0  0  0  0  0  0  0  0  0  0  0  0
    5.9093   58.1161   20.4228 N   0  0  0  0  0  0  0  0  0  0  0  0
    4.2933   55.9476   20.7895 O   0  0  0  0  0  0  0  0  0  0  0  0
    2.9947   55.6697   22.9975 C   0  0  0  0  0  0  0  0  0  0  0  0
    5.0564   58.1480   21.4847 C   0  0  0  0  0  0  0  0  0  0  0  0
    1.5366   53.6743   22.5583 C   0  0  0  0  0  0  0  0  0  0  0  0
    1.7142   54.6404   24.7776 C   0  0  0  0  0  0  0  0  0  0  0  0
    3.2245   50.2687   19.8023 C   0  0  0  0  0  0  0  0  0  0  0  0
    4.1450   59.5200   23.1053 C   0  0  0  0  0  0  0  0  0  0  0  0
    5.9787   61.6277   21.4125 C   0  0  0  0  0  0  0  0  0  0  0  0
    4.6777   59.5293   24.4642 C   0  0  0  0  0  0  0  0  0  0  0  0
    2.8626   51.4124   20.8057 N   0  0  0  0  0  0  0  0  0  0  0  0
    2.2440   50.2782   23.0937 C   0  0  0  0  0  0  0  0  0  0  0  0
    3.0108   56.5738   25.2020 O   0  0  0  0  0  0  0  0  0  0  0  0
   -0.3062   51.9541   22.1436 O   0  0  0  0  0  0  0  0  0  0  0  0
    6.2899   60.4454   20.7638 C   0  0  0  0  0  0  0  0  0  0  0  0
    7.3057   59.6143   19.5639 C   0  0  0  0  0  0  0  0  0  0  0  0
    2.4860   54.6751   22.0513 C   0  0  0  0  0  0  0  0  0  0  0  0
    3.8624   56.6353   22.7232 N   0  0  0  0  0  0  0  0  0  0  0  0
    6.8717   62.2588   20.5790 C   0  0  0  0  0  0  0  0  0  0  0  0
    6.4987   59.1307   20.3069 C   0  0  0  0  0  0  0  0  0  0  0  0
    5.3726   59.7203   21.7068 C   0  0  0  0  0  0  0  0  0  0  0  0
  1 10  2  0
  1 12  1  0
  1 26  1  0
  2 17  2  0
  3 13  1  0
  3 22  1  0
  4 19  1  0
  4 20  1  0
  4 22  1  0
  5 27  1  0
  6 11  2  0
  6 14  1  0
  6 21  1  0
  7 12  1  0
  7 16  1  0
  7 29  1  0
  8 13  1  0
  8 14  2  0
  9 12  1  0
  9 28  1  0
 11 25  1  0
 11 26  1  0
 13 25  2  0
 15 19  1  0
 16 18  1  0
 17 23  1  0
 17 27  1  0
 23 28  1  0
 23 29  1  0
 24 28  2  0
M  END
$$$$

     RDKit          3D

 28 29  0  0  0  0  0  0  0  0999 V2000
    6.0353   58.3048   20.4128 N   0  0  0  0  0  0  0  0  0  0  0  0
    2.9679   55.5680   23.0327 C   0  0  0  0  0  0  0  0  0  0  0  0
    4.3547   57.0572   22.1201 C   0  0  0  0  0  0  0  0  0  0  0  0
    4.1965   59.8600   23.0561 C   0  0  0  0  0  0  0  0  0  0  0  0
    5.9255   60.5694   21.3392 C   0  0  0  0  0  0  0  0  0  0  0  0
    4.5555   59.5789   24.4348 C   0  0  0  0  0  0  0  0  0  0  0  0
    6.1254   62.0210   21.4307 C   0  0  0  0  0  0  0  0  0  0  0  0
    0.8995   52.4751   21.5598 S   0  0  0  0  0  0  0  0  0  0  0  0
    2.9076   51.4966   20.6003 C   0  0  0  0  0  0  0  0  0  0  0  0
   -0.4990   52.0528   22.0373 O   0  0  0  0  0  0  0  0  0  0  0  0
    6.5131   59.5647   20.3717 C   0  0  0  0  0  0  0  0  0  0  0  0
    1.5233   50.1592   22.2117 C   0  0  0  0  0  0  0  0  0  0  0  0
    4.9592   58.1710   21.4421 C   0  0  0  0  0  0  0  0  0  0  0  0
    3.0549   56.4222   25.0691 O   0  0  0  0  0  0  0  0  0  0  0  0
    1.4162   53.4379   22.6580 C   0  0  0  0  0  0  0  0  0  0  0  0
    5.2107   62.2464   22.3850 O   0  0  0  0  0  0  0  0  0  0  0  0
    0.8245   53.5003   24.0013 C   0  0  0  0  0  0  0  0  0  0  0  0
    3.1845   50.2183   19.6536 C   0  0  0  0  0  0  0  0  0  0  0  0
    4.9445   59.5859   22.0330 C   0  0  0  0  0  0  0  0  0  0  0  0
    2.3589   50.4147   23.1955 C   0  0  0  0  0  0  0  0  0  0  0  0
    0.7854   53.0352   20.2370 O   0  0  0  0  0  0  0  0  0  0  0  0
    4.4361   56.3889   20.9221 O   0  0  0  0  0  0  0  0  0  0  0  0
    2.3603   54.5032   22.2064 C   0  0  0  0  0  0  0  0  0  0  0  0
    2.5603   55.3831   24.2230 C   0  0  0  0  0  0  0  0  0  0  0  0
    6.7060   63.1906   20.8594 N   0  0  0  0  0  0  0  0  0  0  0  0
    3.7949   56.5239   22.6860 N   0  0  0  0  0  0  0  0  0  0  0  0
    7.7073   59.7477   19.4476 C   0  0  0  0  0  0  0  0  0  0  0  0
    1.6037   54.3408   24.7289 C   0  0  0  0  0  0  0  0  0  0  0  0
  1 11  1  0
  1 13  1  0
  2 23  2  0
  2 24  1  0
  2 26  1  0
  3 13  1  0
  3 22  2  0
  3 26  1  0
  4  6  1  0
  4 19  1  0
  5  7  1  0
  5 11  1  0
  5 19  1  0
  7 16  2  0
  7 25  1  0
  8  9  1  0
  8 10  1  0
  8 12  1  0
  8 15  1  0
  8 21  1  0
  9 18  1  0
 11 27  1  0
 12 20  1  0
 13 19  1  0
 14 24  1  0
 15 17  2  0
 15 23  1  0
 17 28  1  0
 24 28  2  0
M  END
$$$$

     RDKit          3D

 28 30  0  0  0  0  0  0  0  0999 V2000
    6.0598   58.3170   20.4311 N   0  0  0  0  0  0  0  0  0  0  0  0
    1.2480   53.8902   24.0994 C   0  0  0  0  0  0  0  0  0  0  0  0
    4.1735   56.8238   21.8036 C   0  0  0  0  0  0  0  0  0  0  0  0
    3.9992   59.8983   23.1601 C   0  0  0  0  0  0  0  0  0  0  0  0
    6.9475   63.5577   20.7190 N   0  0  0  0  0  0  0  0  0  0  0  0
    1.9273   51.4398   21.4276 N   0  0  0  0  0  0  0  0  0  0  0  0
    2.6690   55.8860   24.4525 C   0  0  0  0  0  0  0  0  0  0  0  0
    1.6521   53.8548   22.6997 C   0  0  0  0  0  0  0  0  0  0  0  0
    5.0483   59.9352   22.0227 C   0  0  0  0  0  0  0  0  0  0  0  0
    3.0816   55.8733   23.2077 C   0  0  0  0  0  0  0  0  0  0  0  0
    6.4205   59.6582   20.4128 C   0  0  0  0  0  0  0  0  0  0  0  0
    0.8573   53.2607   20.3134 O   0  0  0  0  0  0  0  0  0  0  0  0
    4.3163   59.1700   24.4863 C   0  0  0  0  0  0  0  0  0  0  0  0
    1.5957   50.2328   22.2084 C   0  0  0  0  0  0  0  0  0  0  0  0
    1.0531   52.6454   21.4958 S   0  0  0  0  0  0  0  0  0  0  0  0
    3.2428   50.3493   19.6890 C   0  0  0  0  0  0  0  0  0  0  0  0
    5.0684   58.5502   21.4255 C   0  0  0  0  0  0  0  0  0  0  0  0
    5.1954   62.2943   22.3638 O   0  0  0  0  0  0  0  0  0  0  0  0
    1.6607   54.8336   25.0268 C   0  0  0  0  0  0  0  0  0  0  0  0
    2.5179   54.8950   22.4561 C   0  0  0  0  0  0  0  0  0  0  0  0
    7.6038   59.7754   19.3960 C   0  0  0  0  0  0  0  0  0  0  0  0
    6.8428   62.1385   20.6745 C   0  0  0  0  0  0  0  0  0  0  0  0
    4.0348   57.3056   23.2786 C   0  0  0  0  0  0  0  0  0  0  0  0
    3.1295   51.6755   20.7767 C   0  0  0  0  0  0  0  0  0  0  0  0
   -0.2935   52.2257   21.8171 O   0  0  0  0  0  0  0  0  0  0  0  0
    2.3007   50.4135   23.3554 C   0  0  0  0  0  0  0  0  0  0  0  0
    5.8897   61.1290   21.4519 C   0  0  0  0  0  0  0  0  0  0  0  0
    4.1422   56.0176   20.9887 O   0  0  0  0  0  0  0  0  0  0  0  0
  1 11  1  0
  1 17  1  0
  2  8  2  0
  2 19  1  0
  3 17  2  0
  3 23  1  0
  3 28  1  0
  4  9  2  0
  4 13  1  0
  5 22  1  0
  6 14  1  0
  6 15  1  0
  6 24  1  0
  7 10  1  0
  7 19  2  0
  8 15  1  0
  8 20  1  0
  9 17  1  0
  9 27  1  0
 10 20  2  0
 10 23  1  0
 11 21  1  0
 11 27  1  0
 12 15  1  0
 13 23  2  0
 14 26  1  0
 15 25  1  0
 16 24  1  0
 18 27  1  0
 22 27  1  0
M  END
$$$$

     RDKit          3D

 29 30  0  0  0  0  0  0  0  0999 V2000
    5.0284   58.1812   21.4280 C   0  0  0  0  0  0  0  0  0  0  0  0
    6.7053   59.3723   20.1341 C   0  0  0  0  0  0  0  0  0  0  0  0
    1.5614   53.6022   22.5563 C   0  0  0  0  0  0  0  0  0  0  0  0
    1.4007   50.1875   22.2002 C   0  0  0  0  0  0  0  0  0  0  0  0
    5.6922   61.1084   21.6050 C   0  0  0  0  0  0  0  0  0  0  0  0
    4.3430   56.9014   21.6667 C   0  0  0  0  0  0  0  0  0  0  0  0
    1.0857   53.5379   23.9616 C   0  0  0  0  0  0  0  0  0  0  0  0
    1.0330   52.5340   21.3368 S   0  0  0  0  0  0  0  0  0  0  0  0
    2.9138   51.5940   20.6349 C   0  0  0  0  0  0  0  0  0  0  0  0
    2.9043   56.5149   25.1558 O   0  0  0  0  0  0  0  0  0  0  0  0
    4.9412   59.5958   21.9863 C   0  0  0  0  0  0  0  0  0  0  0  0
    2.9449   55.5897   22.8537 C   0  0  0  0  0  0  0  0  0  0  0  0
    6.8825   63.3644   20.6602 O   0  0  0  0  0  0  0  0  0  0  0  0
    1.5464   54.5868   24.8979 C   0  0  0  0  0  0  0  0  0  0  0  0
    0.6254   53.0527   20.0898 O   0  0  0  0  0  0  0  0  0  0  0  0
    2.3985   54.5780   21.9642 C   0  0  0  0  0  0  0  0  0  0  0  0
    7.5347   59.5857   19.3242 O   0  0  0  0  0  0  0  0  0  0  0  0
    3.8473   56.6933   22.6120 N   0  0  0  0  0  0  0  0  0  0  0  0
    5.2630   62.0459   22.4215 O   0  0  0  0  0  0  0  0  0  0  0  0
    6.0348   58.2219   20.4632 N   0  0  0  0  0  0  0  0  0  0  0  0
    3.0351   50.4722   19.7197 C   0  0  0  0  0  0  0  0  0  0  0  0
    3.8498   59.7274   22.9741 C   0  0  0  0  0  0  0  0  0  0  0  0
   -0.2708   52.0432   21.8018 O   0  0  0  0  0  0  0  0  0  0  0  0
    4.4460   56.0206   20.6523 O   0  0  0  0  0  0  0  0  0  0  0  0
    2.2466   50.1133   23.3488 C   0  0  0  0  0  0  0  0  0  0  0  0
    6.8553   62.0488   20.5999 C   0  0  0  0  0  0  0  0  0  0  0  0
    4.4237   59.7848   24.4187 C   0  0  0  0  0  0  0  0  0  0  0  0
    6.2143   60.3054   20.7652 C   0  0  0  0  0  0  0  0  0  0  0  0
    2.4480   55.5724   24.3820 C   0  0  0  0  0  0  0  0  0  0  0  0
  1  6  1  0
  1 11  1  0
  1 20  1  0
  2 17  2  0
  2 20  1  0
  2 28  1  0
  3  7  2  0
  3  8  1  0
  3 16  1  0
  4  8  1  0
  4 25  1  0
  5 11  1  0
  5 19  1  0
  5 26  1  0
  5 28  1  0
  6 18  1  0
  6 24  2  0
  7 14  1  0
  8  9  1  0
  8 15  1  0
  8 23  1  0
  9 21  1  0
 10 29  1  0
 11 22  1  0
 12 16  2  0
 12 18  1  0
 12 29  1  0
 13 26  1  0
 14 29  2  0
 22 27  1  0
M  END
$$$$

     RDKit          3D

 25 26  0  0  0  0  0  0  0  0999 V2000
    4.4930   56.6802   21.7029 C   0  0  0  0  0  0  0  0  0  0  0  0
    1.5104   50.1380   22.1722 C   0  0  0  0  0  0  0  0  0  0  0  0
    1.1340   53.5650   23.9947 C   0  0  0  0  0  0  0  0  0  0  0  0
    2.5197   54.4091   22.0998 C   0  0  0  0  0  0  0  0  0  0  0  0
    6.0385   58.1854   20.4423 N   0  0  0  0  0  0  0  0  0  0  0  0
    4.4740   59.4254   22.2641 C   0  0  0  0  0  0  0  0  0  0  0  0
    5.5366   60.1490   21.4409 C   0  0  0  0  0  0  0  0  0  0  0  0
    7.0702   62.0074   20.5622 C   0  0  0  0  0  0  0  0  0  0  0  0
    3.0753   50.4469   19.7712 C   0  0  0  0  0  0  0  0  0  0  0  0
    4.3416   55.9311   20.7786 O   0  0  0  0  0  0  0  0  0  0  0  0
    1.8896   54.6495   24.7394 C   0  0  0  0  0  0  0  0  0  0  0  0
    2.9815   55.5591   23.0939 C   0  0  0  0  0  0  0  0  0  0  0  0
    1.5982   53.4672   22.6674 C   0  0  0  0  0  0  0  0  0  0  0  0
    1.9568   51.2805   21.4957 N   0  0  0  0  0  0  0  0  0  0  0  0
    7.8403   59.7267   19.2929 C   0  0  0  0  0  0  0  0  0  0  0  0
    4.0305   56.4460   22.7879 O   0  0  0  0  0  0  0  0  0  0  0  0
    5.0639   58.0643   21.4073 C   0  0  0  0  0  0  0  0  0  0  0  0
    7.2086   63.7860   20.4987 Cl  0  0  0  0  0  0  0  0  0  0  0  0
    6.6004   59.6246   20.3337 C   0  0  0  0  0  0  0  0  0  0  0  0
    5.4678   62.2138   22.2408 O   0  0  0  0  0  0  0  0  0  0  0  0
   -0.1565   51.9000   21.4272 O   0  0  0  0  0  0  0  0  0  0  0  0
    2.3350   50.2608   23.3448 C   0  0  0  0  0  0  0  0  0  0  0  0
    2.5058   55.5231   24.6854 C   0  0  0  0  0  0  0  0  0  0  0  0
    0.8169   52.8384   20.4277 O   0  0  0  0  0  0  0  0  0  0  0  0
    6.0755   61.3218   21.3136 C   0  0  0  0  0  0  0  0  0  0  0  0
  1 10  2  0
  1 16  1  0
  1 17  1  0
  2  9  1  0
  2 22  1  0
  3 11  2  0
  3 13  1  0
  4 12  1  0
  4 13  2  0
  5 17  1  0
  5 19  1  0
  6  7  1  0
  6 17  1  0
  7 19  1  0
  7 25  1  0
  8 18  1  0
  8 25  2  3
 11 23  1  0
 12 16  1  0
 12 23  2  0
 13 24  1  0
 14 21  1  0
 14 22  1  0
 15 19  1  0
 20 25  1  0
 21 24  1  0
M  END
$$$$

     RDKit          3D

 29 31  0  0  0  0  0  0  0  0999 V2000
    1.8356   53.7204   22.3371 C   0  0  0  0  0  0  0  0  0  0  0  0
    4.3766   56.9492   21.5649 C   0  0  0  0  0  0  0  0  0  0  0  0
    3.0390   55.6794   22.9518 C   0  0  0  0  0  0  0  0  0  0  0  0
    5.3448   59.7236   21.6524 C   0  0  0  0  0  0  0  0  0  0  0  0
    1.3457   53.4781   23.6825 C   0  0  0  0  0  0  0  0  0  0  0  0
    7.0900   59.0620   19.7463 C   0  0  0  0  0  0  0  0  0  0  0  0
    5.3565   62.1668   22.2792 O   0  0  0  0  0  0  0  0  0  0  0  0
    1.6313   50.4558   22.7443 C   0  0  0  0  0  0  0  0  0  0  0  0
    5.2596   58.3486   21.3654 C   0  0  0  0  0  0  0  0  0  0  0  0
    3.0942   51.5639   20.6809 C   0  0  0  0  0  0  0  0  0  0  0  0
    2.9160   56.3649   25.2237 N   0  0  0  0  0  0  0  0  0  0  0  0
    6.1991   60.8311   21.1941 C   0  0  0  0  0  0  0  0  0  0  0  0
    3.9099   56.8689   22.7612 N   0  0  0  0  0  0  0  0  0  0  0  0
    0.0083   52.1539   21.8934 O   0  0  0  0  0  0  0  0  0  0  0  0
    0.8000   53.0137   20.5816 O   0  0  0  0  0  0  0  0  0  0  0  0
    4.0945   59.8816   22.7388 C   0  0  0  0  0  0  0  0  0  0  0  0
    2.1495   51.4487   21.6568 N   0  0  0  0  0  0  0  0  0  0  0  0
    1.7093   54.4692   24.6557 C   0  0  0  0  0  0  0  0  0  0  0  0
    7.0660   63.1213   20.7082 N   0  0  0  0  0  0  0  0  0  0  0  0
    6.2475   58.3162   20.2710 N   0  0  0  0  0  0  0  0  0  0  0  0
    0.8323   51.8931   23.1167 C   0  0  0  0  0  0  0  0  0  0  0  0
    3.3032   50.6071   20.0272 C   0  0  0  0  0  0  0  0  0  0  0  0
    4.4365   59.8472   24.2503 C   0  0  0  0  0  0  0  0  0  0  0  0
    7.2585   60.4643   20.0100 C   0  0  0  0  0  0  0  0  0  0  0  0
    4.2983   56.0948   20.6862 O   0  0  0  0  0  0  0  0  0  0  0  0
    2.6248   49.8948   23.7712 C   0  0  0  0  0  0  0  0  0  0  0  0
    2.5539   55.5429   24.3003 C   0  0  0  0  0  0  0  0  0  0  0  0
    6.4687   62.0791   21.2260 C   0  0  0  0  0  0  0  0  0  0  0  0
    2.6144   54.5921   22.1838 C   0  0  0  0  0  0  0  0  0  0  0  0
  1  5  2  0
  1 15  1  0
  1 29  1  0
  2  9  1  0
  2 13  1  0
  2 25  2  0
  3 13  1  0
  3 27  1  0
  3 29  2  0
  4  9  2  0
  4 12  1  0
  4 16  1  0
  5 18  1  0
  5 21  1  0
  6 20  2  0
  6 24  1  0
  7 28  2  0
  8 17  1  0
  8 21  1  0
  8 26  1  0
  9 20  1  0
 10 17  1  0
 10 22  2  0
 11 27  1  0
 12 24  2  0
 12 28  1  0
 14 15  1  0
 14 21  1  0
 16 23  1  0
 18 27  2  0
 19 28  1  0
M  END
$$$$

     RDKit          3D

 26 27  0  0  0  0  0  0  0  0999 V2000
    3.1658   55.8808   23.0607 C   0  0  0  0  0  0  0  0  0  0  0  0
    4.4397   57.0283   21.7265 C   0  0  0  0  0  0  0  0  0  0  0  0
    5.3778   58.0969   21.1216 C   0  0  0  0  0  0  0  0  0  0  0  0
    2.9943   51.5707   20.7694 C   0  0  0  0  0  0  0  0  0  0  0  0
    4.0657   59.3933   22.8865 C   0  0  0  0  0  0  0  0  0  0  0  0
    5.3264   59.8657   21.6337 C   0  0  0  0  0  0  0  0  0  0  0  0
    0.9802   52.5088   21.4697 S   0  0  0  0  0  0  0  0  0  0  0  0
    6.7137   62.2542   20.6274 C   0  0  0  0  0  0  0  0  0  0  0  0
    7.1914   59.8527   19.8573 C   0  0  0  0  0  0  0  0  0  0  0  0
    1.2072   53.5700   24.0493 C   0  0  0  0  0  0  0  0  0  0  0  0
    1.5720   53.5910   22.5378 C   0  0  0  0  0  0  0  0  0  0  0  0
    6.0224   61.6412   21.4607 C   0  0  0  0  0  0  0  0  0  0  0  0
    2.8293   55.8958   24.4823 C   0  0  0  0  0  0  0  0  0  0  0  0
    5.2843   62.2223   22.4190 O   0  0  0  0  0  0  0  0  0  0  0  0
    1.7259   50.4100   22.7024 C   0  0  0  0  0  0  0  0  0  0  0  0
   -0.3851   52.1067   21.8780 O   0  0  0  0  0  0  0  0  0  0  0  0
    4.5339   56.0245   20.7926 O   0  0  0  0  0  0  0  0  0  0  0  0
    0.8444   52.9929   20.0291 O   0  0  0  0  0  0  0  0  0  0  0  0
    2.9507   50.6589   19.7290 C   0  0  0  0  0  0  0  0  0  0  0  0
    6.0369   59.0168   20.6599 C   0  0  0  0  0  0  0  0  0  0  0  0
    4.4741   59.7147   24.3122 C   0  0  0  0  0  0  0  0  0  0  0  0
    2.5360   54.6532   22.2529 C   0  0  0  0  0  0  0  0  0  0  0  0
    1.8199   54.7218   24.8569 C   0  0  0  0  0  0  0  0  0  0  0  0
    4.0130   57.9558   22.3467 C   0  0  0  0  0  0  0  0  0  0  0  0
    7.1762   61.2647   20.0644 C   0  0  0  0  0  0  0  0  0  0  0  0
    6.7925   63.1359   20.8099 N   0  0  0  0  0  0  0  0  0  0  0  0
  1  2  1  0
  1 13  1  0
  1 22  2  0
  2  3  1  0
  2 17  1  0
  2 24  1  0
  3 20  1  0
  4  7  1  0
  4 19  1  0
  5  6  1  0
  5 21  1  0
  5 24  1  0
  6 20  1  0
  7 11  1  0
  7 15  1  0
  7 16  1  0
  7 18  1  0
  8 12  1  0
  8 25  1  0
  8 26  2  0
  9 20  1  0
  9 25  2  3
 10 11  2  0
 10 23  1  0
 11 22  1  0
 12 14  1  0
 13 23  2  0
M  END
$$$$

     RDKit          3D

 28 29  0  0  0  0  0  0  0  0999 V2000
    5.2893   62.0328   22.5251 O   0  0  0  0  0  0  0  0  0  0  0  0
    5.7731   58.1111   20.7689 N   0  0  0  0  0  0  0  0  0  0  0  0
    4.3204   55.8703   20.9196 O   0  0  0  0  0  0  0  0  0  0  0  0
    1.6488   53.7273   22.8407 C   0  0  0  0  0  0  0  0  0  0  0  0
    4.5715   59.2296   22.4054 C   0  0  0  0  0  0  0  0  0  0  0  0
    3.5621   55.5439   22.0460 C   0  0  0  0  0  0  0  0  0  0  0  0
    6.9051   62.1161   20.8700 C   0  0  0  0  0  0  0  0  0  0  0  0
    6.4649   59.5068   20.4781 C   0  0  0  0  0  0  0  0  0  0  0  0
   -0.3460   52.0065   22.2256 O   0  0  0  0  0  0  0  0  0  0  0  0
    2.8727   51.6808   20.6612 C   0  0  0  0  0  0  0  0  0  0  0  0
    0.6961   53.0090   20.4318 O   0  0  0  0  0  0  0  0  0  0  0  0
    4.2161   57.1292   22.7221 C   0  0  0  0  0  0  0  0  0  0  0  0
    1.6093   50.1949   22.3678 C   0  0  0  0  0  0  0  0  0  0  0  0
    0.9491   52.4723   21.6731 S   0  0  0  0  0  0  0  0  0  0  0  0
    4.0674   59.7231   23.0649 C   0  0  0  0  0  0  0  0  0  0  0  0
    7.5152   59.6387   19.4314 C   0  0  0  0  0  0  0  0  0  0  0  0
    4.8613   58.1168   21.8305 C   0  0  0  0  0  0  0  0  0  0  0  0
    3.2268   50.4463   20.0307 C   0  0  0  0  0  0  0  0  0  0  0  0
    1.3684   53.9725   24.2404 N   0  0  0  0  0  0  0  0  0  0  0  0
    2.6084   54.4359   22.2052 C   0  0  0  0  0  0  0  0  0  0  0  0
    5.3095   60.2065   21.9014 C   0  0  0  0  0  0  0  0  0  0  0  0
    6.8944   63.5395   20.9501 O   0  0  0  0  0  0  0  0  0  0  0  0
    2.8934   56.2819   25.0502 N   0  0  0  0  0  0  0  0  0  0  0  0
    2.3915   50.2873   23.6745 C   0  0  0  0  0  0  0  0  0  0  0  0
    4.4306   59.7055   24.5575 C   0  0  0  0  0  0  0  0  0  0  0  0
    3.2995   55.9941   23.2367 C   0  0  0  0  0  0  0  0  0  0  0  0
    2.2557   55.2231   24.3427 C   0  0  0  0  0  0  0  0  0  0  0  0
    5.8123   61.5007   21.6010 C   0  0  0  0  0  0  0  0  0  0  0  0
  1 28  1  0
  2  8  1  0
  2 17  1  0
  3  6  1  0
  4 14  1  0
  4 19  1  0
  4 20  1  0
  5 15  1  0
  5 17  1  0
  5 21  1  0
  6 20  1  0
  6 26  1  0
  7 22  1  0
  7 28  1  0
  8 16  1  0
  8 28  1  0
  9 14  1  0
 10 14  1  0
 10 18  1  0
 11 14  1  0
 12 17  1  0
 12 26  2  3
 13 14  1  0
 13 24  1  0
 15 25  1  0
 19 27  1  0
 21 28  1  0
 23 27  1  0
 26 27  1  0
M  END
$$$$

     RDKit          3D

 27 28  0  0  0  0  0  0  0  0999 V2000
    3.7811   56.5420   22.9185 N   0  0  0  0  0  0  0  0  0  0  0  0
    2.5585   54.5168   22.0705 C   0  0  0  0  0  0  0  0  0  0  0  0
    2.9875   56.5731   25.2114 N   0  0  0  0  0  0  0  0  0  0  0  0
    4.9668   59.4455   21.9983 C   0  0  0  0  0  0  0  0  0  0  0  0
    5.3404   62.1458   22.2680 O   0  0  0  0  0  0  0  0  0  0  0  0
    7.6977   59.5179   19.1820 C   0  0  0  0  0  0  0  0  0  0  0  0
    4.3313   56.0337   20.7984 O   0  0  0  0  0  0  0  0  0  0  0  0
    2.6907   55.5609   24.3006 C   0  0  0  0  0  0  0  0  0  0  0  0
    7.0834   62.0078   20.4708 C   0  0  0  0  0  0  0  0  0  0  0  0
    5.9835   58.2767   20.4172 N   0  0  0  0  0  0  0  0  0  0  0  0
   -0.4346   52.0495   21.8677 O   0  0  0  0  0  0  0  0  0  0  0  0
    1.3384   52.0935   21.6602 S   0  0  0  0  0  0  0  0  0  0  0  0
    2.9326   51.6656   20.9027 C   0  0  0  0  0  0  0  0  0  0  0  0
    0.8312   53.0863   20.2183 O   0  0  0  0  0  0  0  0  0  0  0  0
    3.9293   59.5373   23.1011 C   0  0  0  0  0  0  0  0  0  0  0  0
    1.3687   50.4706   22.2461 C   0  0  0  0  0  0  0  0  0  0  0  0
    1.2422   53.4575   23.9089 C   0  0  0  0  0  0  0  0  0  0  0  0
    5.8350   60.8476   21.4239 C   0  0  0  0  0  0  0  0  0  0  0  0
    6.6262   59.5475   20.1999 C   0  0  0  0  0  0  0  0  0  0  0  0
    4.1888   56.7840   21.9666 C   0  0  0  0  0  0  0  0  0  0  0  0
    5.0799   58.2384   21.4540 C   0  0  0  0  0  0  0  0  0  0  0  0
    2.1930   50.3607   23.6184 C   0  0  0  0  0  0  0  0  0  0  0  0
    1.6608   53.5494   22.4994 C   0  0  0  0  0  0  0  0  0  0  0  0
    4.4657   59.5050   24.5433 C   0  0  0  0  0  0  0  0  0  0  0  0
    1.8065   54.5386   24.6216 C   0  0  0  0  0  0  0  0  0  0  0  0
    3.0536   50.8360   20.1864 C   0  0  0  0  0  0  0  0  0  0  0  0
    3.0682   55.5256   22.8293 C   0  0  0  0  0  0  0  0  0  0  0  0
  1 20  1  0
  1 27  1  0
  2 23  2  0
  2 27  1  0
  3  8  1  0
  4 15  1  0
  4 18  1  0
  4 21  1  0
  5 18  1  0
  6 19  1  0
  7 20  1  0
  8 25  1  0
  8 27  2  0
  9 18  1  0
 10 19  1  0
 10 21  1  0
 11 12  1  0
 12 13  1  0
 12 14  1  0
 12 16  1  0
 12 23  1  0
 13 26  1  0
 15 24  1  0
 16 22  1  0
 17 23  1  0
 17 25  2  0
 18 19  1  0
 20 21  1  0
M  END
$$$$

     RDKit          3D

 28 29  0  0  0  0  0  0  0  0999 V2000
    2.4862   55.4160   24.0574 C   0  0  0  0  0  0  0  0  0  0  0  0
    4.8708   59.4403   22.0363 C   0  0  0  0  0  0  0  0  0  0  0  0
    5.2739   62.2322   22.2913 O   0  0  0  0  0  0  0  0  0  0  0  0
    1.4612   53.4515   22.4186 C   0  0  0  0  0  0  0  0  0  0  0  0
    4.3940   57.0400   21.9993 N   0  0  0  0  0  0  0  0  0  0  0  0
    6.9197   63.5923   20.8082 O   0  0  0  0  0  0  0  0  0  0  0  0
    1.4479   54.4219   24.5091 C   0  0  0  0  0  0  0  0  0  0  0  0
    5.9468   58.1926   20.4615 N   0  0  0  0  0  0  0  0  0  0  0  0
    3.2202   55.3772   22.6101 C   0  0  0  0  0  0  0  0  0  0  0  0
    5.8939   61.6309   21.5597 C   0  0  0  0  0  0  0  0  0  0  0  0
    4.8916   58.1281   21.3781 C   0  0  0  0  0  0  0  0  0  0  0  0
    0.7453   53.1001   20.3367 O   0  0  0  0  0  0  0  0  0  0  0  0
    1.5819   50.2626   22.1301 C   0  0  0  0  0  0  0  0  0  0  0  0
    0.7331   53.3326   23.7894 C   0  0  0  0  0  0  0  0  0  0  0  0
   -0.4021   51.8529   21.7919 O   0  0  0  0  0  0  0  0  0  0  0  0
    3.2251   50.5462   19.8320 N   0  0  0  0  0  0  0  0  0  0  0  0
    4.6012   59.6992   24.3475 C   0  0  0  0  0  0  0  0  0  0  0  0
    5.6905   60.3053   21.5019 C   0  0  0  0  0  0  0  0  0  0  0  0
    1.8762   51.4559   21.5516 N   0  0  0  0  0  0  0  0  0  0  0  0
    2.8724   56.2710   25.0332 O   0  0  0  0  0  0  0  0  0  0  0  0
    4.1361   56.1741   20.8934 N   0  0  0  0  0  0  0  0  0  0  0  0
    6.4313   59.4904   20.4990 C   0  0  0  0  0  0  0  0  0  0  0  0
    2.4118   50.2850   23.3499 C   0  0  0  0  0  0  0  0  0  0  0  0
    2.6073   54.5474   22.0814 C   0  0  0  0  0  0  0  0  0  0  0  0
    3.0425   51.6952   20.7373 C   0  0  0  0  0  0  0  0  0  0  0  0
    7.6224   59.7957   19.5538 C   0  0  0  0  0  0  0  0  0  0  0  0
    3.9713   59.7435   23.0919 C   0  0  0  0  0  0  0  0  0  0  0  0
    6.9243   62.3348   20.8095 C   0  0  0  0  0  0  0  0  0  0  0  0
  1  7  2  0
  1  9  1  0
  1 20  1  0
  2 11  1  0
  2 18  1  0
  2 27  1  0
  3 10  2  0
  4 12  1  0
  4 14  2  0
  4 24  1  0
  5 11  1  0
  5 21  1  0
  6 28  2  0
  7 14  1  0
  8 11  1  0
  8 22  1  0
  9 21  1  0
  9 24  2  0
 10 18  1  0
 10 28  1  0
 12 15  1  0
 13 19  1  0
 13 23  1  0
 16 25  2  0
 17 27  1  0
 18 22  1  0
 19 25  1  0
 22 26  1  0
 24 25  1  0
M  END
$$$$

     RDKit          3D

 28 29  0  0  0  0  0  0  0  0999 V2000
    4.3069   56.6719   21.5366 C   0  0  0  0  0  0  0  0  0  0  0  0
    2.3594   55.3076   24.3122 C   0  0  0  0  0  0  0  0  0  0  0  0
    5.2874   62.2709   22.2279 O   0  0  0  0  0  0  0  0  0  0  0  0
    2.8601   51.5520   20.6050 C   0  0  0  0  0  0  0  0  0  0  0  0
    5.9513   58.1459   20.4960 N   0  0  0  0  0  0  0  0  0  0  0  0
    6.5426   59.4790   20.3009 C   0  0  0  0  0  0  0  0  0  0  0  0
    6.9200   63.7330   20.7341 O   0  0  0  0  0  0  0  0  0  0  0  0
    1.1707   50.3068   22.2821 C   0  0  0  0  0  0  0  0  0  0  0  0
    1.5476   53.5265   22.4269 C   0  0  0  0  0  0  0  0  0  0  0  0
    1.0061   52.5290   21.4499 S   0  0  0  0  0  0  0  0  0  0  0  0
    2.8793   55.3328   22.9105 C   0  0  0  0  0  0  0  0  0  0  0  0
    1.6084   54.2882   24.7068 C   0  0  0  0  0  0  0  0  0  0  0  0
    5.7833   60.2988   21.1694 C   0  0  0  0  0  0  0  0  0  0  0  0
    4.8404   59.3779   21.9400 C   0  0  0  0  0  0  0  0  0  0  0  0
    2.2159   50.3575   23.3656 C   0  0  0  0  0  0  0  0  0  0  0  0
    7.6493   59.6777   19.5275 C   0  0  0  0  0  0  0  0  0  0  0  0
    3.0072   50.4978   19.8237 C   0  0  0  0  0  0  0  0  0  0  0  0
    5.9611   61.6928   21.5085 C   0  0  0  0  0  0  0  0  0  0  0  0
    4.1375   59.7178   23.3495 C   0  0  0  0  0  0  0  0  0  0  0  0
   -0.3112   52.0484   22.0567 O   0  0  0  0  0  0  0  0  0  0  0  0
    3.8065   56.4103   22.6814 N   0  0  0  0  0  0  0  0  0  0  0  0
    4.2675   55.7687   20.7376 O   0  0  0  0  0  0  0  0  0  0  0  0
    6.9133   62.3910   20.6484 C   0  0  0  0  0  0  0  0  0  0  0  0
    0.7832   53.1280   20.3389 O   0  0  0  0  0  0  0  0  0  0  0  0
    2.2888   54.4319   22.0425 C   0  0  0  0  0  0  0  0  0  0  0  0
    2.7350   55.9933   25.1123 O   0  0  0  0  0  0  0  0  0  0  0  0
    1.1468   53.4169   23.8207 C   0  0  0  0  0  0  0  0  0  0  0  0
    4.9807   58.1198   21.2790 C   0  0  0  0  0  0  0  0  0  0  0  0
  1 21  1  0
  1 22  2  0
  1 28  1  0
  2 11  1  0
  2 12  1  0
  2 26  1  0
  3 18  2  0
  4 10  1  0
  4 17  2  0
  5  6  1  0
  5 28  1  0
  6 13  1  0
  6 16  1  0
  7 23  1  0
  8 10  1  0
  8 15  1  0
  9 10  1  0
  9 25  1  0
  9 27  1  0
 10 20  1  0
 10 24  1  0
 11 21  2  3
 11 25  1  0
 12 27  1  0
 13 14  1  0
 13 18  1  0
 14 19  1  0
 14 28  1  0
 18 23  1  0
M  END
$$$$

     RDKit          3D

 28 29  0  0  0  0  0  0  0  0999 V2000
    6.7463   59.5134   20.2112 C   0  0  0  0  0  0  0  0  0  0  0  0
    3.0564   50.2150   19.5591 C   0  0  0  0  0  0  0  0  0  0  0  0
    1.0939   53.6574   23.7754 C   0  0  0  0  0  0  0  0  0  0  0  0
    4.3054   56.7939   21.6151 C   0  0  0  0  0  0  0  0  0  0  0  0
    2.4776   54.6240   22.0292 C   0  0  0  0  0  0  0  0  0  0  0  0
    4.9529   59.5817   21.9799 C   0  0  0  0  0  0  0  0  0  0  0  0
    5.3548   62.3089   22.3324 O   0  0  0  0  0  0  0  0  0  0  0  0
    6.9026   62.2121   20.7517 C   0  0  0  0  0  0  0  0  0  0  0  0
    3.2276   51.2562   20.4568 C   0  0  0  0  0  0  0  0  0  0  0  0
    2.9027   56.5513   25.3808 O   0  0  0  0  0  0  0  0  0  0  0  0
    2.9892   55.6444   23.0504 C   0  0  0  0  0  0  0  0  0  0  0  0
    6.0915   58.2919   20.3804 N   0  0  0  0  0  0  0  0  0  0  0  0
    2.5181   55.5953   24.3544 C   0  0  0  0  0  0  0  0  0  0  0  0
    1.6930   50.2591   21.7151 C   0  0  0  0  0  0  0  0  0  0  0  0
    3.9261   59.5013   23.1338 C   0  0  0  0  0  0  0  0  0  0  0  0
    5.1172   58.2243   21.4489 C   0  0  0  0  0  0  0  0  0  0  0  0
    4.3137   59.1559   24.5473 C   0  0  0  0  0  0  0  0  0  0  0  0
    1.5772   53.6253   22.3583 C   0  0  0  0  0  0  0  0  0  0  0  0
    3.7966   56.6263   22.8204 N   0  0  0  0  0  0  0  0  0  0  0  0
   -0.3242   52.0239   21.5732 O   0  0  0  0  0  0  0  0  0  0  0  0
    1.5483   54.6308   24.6697 C   0  0  0  0  0  0  0  0  0  0  0  0
    0.8282   53.0702   20.0309 O   0  0  0  0  0  0  0  0  0  0  0  0
    7.7784   59.5789   19.3219 F   0  0  0  0  0  0  0  0  0  0  0  0
    4.2757   55.9145   20.9567 O   0  0  0  0  0  0  0  0  0  0  0  0
    2.3896   50.2729   22.9378 C   0  0  0  0  0  0  0  0  0  0  0  0
    2.2955   51.4044   21.0503 C   0  0  0  0  0  0  0  0  0  0  0  0
    5.9246   61.6408   21.5493 C   0  0  0  0  0  0  0  0  0  0  0  0
    5.9496   60.2827   21.1858 C   0  0  0  0  0  0  0  0  0  0  0  0
  1 12  1  0
  1 23  1  0
  1 28  1  0
  2  9  1  0
  3 18  2  0
  3 21  1  0
  4 16  1  0
  4 19  1  0
  4 24  2  0
  5 11  2  0
  5 18  1  0
  6 15  1  0
  6 16  1  0
  6 28  1  0
  7 27  2  0
  8 27  1  0
  9 26  1  0
 10 13  1  0
 11 13  1  0
 11 19  1  0
 12 16  1  0
 13 21  2  0
 14 25  1  0
 14 26  1  0
 15 17  1  0
 18 22  1  0
 20 22  1  0
 20 26  1  0
 27 28  1  0
M  END
$$$$

     RDKit          3D

 27 28  0  0  0  0  0  0  0  0999 V2000
    2.5195   55.6137   24.4500 C   0  0  0  0  0  0  0  0  0  0  0  0
    3.2338   50.2631   19.7327 N   0  0  0  0  0  0  0  0  0  0  0  0
    6.8434   62.1110   20.7308 C   0  0  0  0  0  0  0  0  0  0  0  0
    5.2552   61.9876   22.1217 O   0  0  0  0  0  0  0  0  0  0  0  0
    4.4152   56.6900   21.6928 C   0  0  0  0  0  0  0  0  0  0  0  0
    1.9051   51.2665   21.6364 N   0  0  0  0  0  0  0  0  0  0  0  0
    6.5784   59.5748   20.5110 C   0  0  0  0  0  0  0  0  0  0  0  0
    2.4515   54.5473   22.3300 C   0  0  0  0  0  0  0  0  0  0  0  0
    0.9576   52.5362   21.8527 S   0  0  0  0  0  0  0  0  0  0  0  0
    0.9723   53.6013   24.1822 C   0  0  0  0  0  0  0  0  0  0  0  0
    4.2613   59.9884   22.8645 C   0  0  0  0  0  0  0  0  0  0  0  0
    2.9307   55.6135   23.1624 C   0  0  0  0  0  0  0  0  0  0  0  0
    7.6974   59.6776   19.4830 C   0  0  0  0  0  0  0  0  0  0  0  0
    5.2702   59.6921   21.8271 C   0  0  0  0  0  0  0  0  0  0  0  0
    2.4256   50.1189   23.4379 C   0  0  0  0  0  0  0  0  0  0  0  0
    4.5613   59.5825   24.3411 C   0  0  0  0  0  0  0  0  0  0  0  0
    3.2099   51.2757   20.7319 C   0  0  0  0  0  0  0  0  0  0  0  0
    5.9652   60.9577   21.3743 C   0  0  0  0  0  0  0  0  0  0  0  0
    6.9431   63.4636   20.6622 N   0  0  0  0  0  0  0  0  0  0  0  0
    1.6503   54.6014   24.9109 C   0  0  0  0  0  0  0  0  0  0  0  0
   -0.2424   52.1312   22.2348 O   0  0  0  0  0  0  0  0  0  0  0  0
    1.5094   53.4604   22.8426 C   0  0  0  0  0  0  0  0  0  0  0  0
    0.9592   53.0412   20.5995 O   0  0  0  0  0  0  0  0  0  0  0  0
    1.6437   50.1841   22.2518 C   0  0  0  0  0  0  0  0  0  0  0  0
    4.3323   56.0424   20.9803 O   0  0  0  0  0  0  0  0  0  0  0  0
    5.2106   58.1503   21.5099 C   0  0  0  0  0  0  0  0  0  0  0  0
    6.1059   58.1908   20.5592 N   0  0  0  0  0  0  0  0  0  0  0  0
  1 12  2  0
  1 20  1  0
  2 17  1  0
  3 18  1  0
  3 19  1  0
  4 18  1  0
  5 12  1  0
  5 25  1  0
  5 26  1  0
  6  9  1  0
  6 17  1  0
  6 24  1  0
  7 13  1  0
  7 18  1  0
  7 27  1  0
  8 12  1  0
  8 22  2  0
  9 21  1  0
  9 22  1  0
  9 23  1  0
 10 20  2  0
 10 22  1  0
 11 14  1  0
 11 16  1  0
 14 18  1  0
 14 26  1  0
 15 24  1  0
 26 27  1  0
M  END
$$$$

     RDKit          3D

 27 28  0  0  0  0  0  0  0  0999 V2000
    4.9840   58.1192   21.3924 C   0  0  0  0  0  0  0  0  0  0  0  0
    1.3282   54.5622   24.8756 C   0  0  0  0  0  0  0  0  0  0  0  0
    6.9805   62.2131   20.4851 C   0  0  0  0  0  0  0  0  0  0  0  0
    4.2507   56.7257   21.5905 C   0  0  0  0  0  0  0  0  0  0  0  0
    5.3102   62.0250   22.1423 O   0  0  0  0  0  0  0  0  0  0  0  0
    2.4130   55.4956   24.4096 C   0  0  0  0  0  0  0  0  0  0  0  0
    1.8052   51.4417   21.4049 N   0  0  0  0  0  0  0  0  0  0  0  0
    0.7579   53.1286   20.3829 O   0  0  0  0  0  0  0  0  0  0  0  0
    3.1724   50.3711   19.7060 C   0  0  0  0  0  0  0  0  0  0  0  0
    3.7959   56.4935   22.9503 N   0  0  0  0  0  0  0  0  0  0  0  0
    6.0265   58.4532   20.4769 N   0  0  0  0  0  0  0  0  0  0  0  0
    0.8701   53.5645   24.0486 C   0  0  0  0  0  0  0  0  0  0  0  0
    2.8444   51.5682   20.6417 C   0  0  0  0  0  0  0  0  0  0  0  0
    7.7704   59.7607   19.2290 C   0  0  0  0  0  0  0  0  0  0  0  0
    2.3985   54.5358   22.2323 C   0  0  0  0  0  0  0  0  0  0  0  0
    5.7505   60.6830   21.3944 C   0  0  0  0  0  0  0  0  0  0  0  0
    3.8699   59.5429   23.0740 C   0  0  0  0  0  0  0  0  0  0  0  0
    4.8869   59.4258   21.9338 C   0  0  0  0  0  0  0  0  0  0  0  0
    2.3578   50.7054   23.2343 C   0  0  0  0  0  0  0  0  0  0  0  0
    6.9613   63.5984   20.5451 O   0  0  0  0  0  0  0  0  0  0  0  0
    4.3026   59.5384   24.4482 C   0  0  0  0  0  0  0  0  0  0  0  0
    1.2926   53.5525   22.7785 C   0  0  0  0  0  0  0  0  0  0  0  0
    2.7432   56.4661   25.3837 O   0  0  0  0  0  0  0  0  0  0  0  0
    4.2653   55.9803   20.5287 O   0  0  0  0  0  0  0  0  0  0  0  0
    6.6288   59.7492   20.2670 C   0  0  0  0  0  0  0  0  0  0  0  0
    2.9110   55.5213   23.1212 C   0  0  0  0  0  0  0  0  0  0  0  0
    1.5139   50.5836   22.0273 C   0  0  0  0  0  0  0  0  0  0  0  0
  1  4  1  0
  1 11  1  0
  1 18  1  0
  2  6  2  0
  2 12  1  0
  3 16  1  0
  3 20  1  0
  4 10  1  0
  4 24  2  0
  5 16  1  0
  6 23  1  0
  6 26  1  0
  7 13  1  0
  7 27  1  0
  8 13  1  0
  8 22  1  0
  9 13  1  0
 10 26  1  0
 11 25  1  0
 12 22  2  0
 14 25  1  0
 15 22  1  0
 15 26  2  0
 16 18  1  0
 16 25  1  0
 17 18  1  0
 17 21  1  0
 19 27  1  0
M  END
$$$$

     RDKit          3D

 29 31  0  0  0  0  0  0  0  0999 V2000
    1.0913   52.5163   21.5442 S   0  0  0  0  0  0  0  0  0  0  0  0
    5.2327   62.1708   22.2881 O   0  0  0  0  0  0  0  0  0  0  0  0
    1.1995   53.7611   23.8589 C   0  0  0  0  0  0  0  0  0  0  0  0
    2.8569   56.3116   25.0674 N   0  0  0  0  0  0  0  0  0  0  0  0
    5.9983   58.0157   20.6135 N   0  0  0  0  0  0  0  0  0  0  0  0
    4.4619   55.9314   20.4325 F   0  0  0  0  0  0  0  0  0  0  0  0
    3.8449   56.5640   22.8610 N   0  0  0  0  0  0  0  0  0  0  0  0
    1.7278   53.7308   22.4901 C   0  0  0  0  0  0  0  0  0  0  0  0
    6.6457   62.0332   20.7280 C   0  0  0  0  0  0  0  0  0  0  0  0
    2.9675   50.3721   19.8918 C   0  0  0  0  0  0  0  0  0  0  0  0
    7.4966   59.5403   19.5369 C   0  0  0  0  0  0  0  0  0  0  0  0
    4.3416   59.3905   24.1168 C   0  0  0  0  0  0  0  0  0  0  0  0
    4.4425   56.7556   21.5629 C   0  0  0  0  0  0  0  0  0  0  0  0
    1.6577   54.7472   24.9048 N   0  0  0  0  0  0  0  0  0  0  0  0
    7.4125   61.0657   19.9794 C   0  0  0  0  0  0  0  0  0  0  0  0
    2.9707   51.6184   20.9481 C   0  0  0  0  0  0  0  0  0  0  0  0
    2.6719   54.6606   22.1263 C   0  0  0  0  0  0  0  0  0  0  0  0
    6.4731   58.8099   20.1948 C   0  0  0  0  0  0  0  0  0  0  0  0
    5.7475   61.4031   21.5007 C   0  0  0  0  0  0  0  0  0  0  0  0
    6.9816   63.4887   20.6909 N   0  0  0  0  0  0  0  0  0  0  0  0
   -0.2778   52.0682   21.8133 O   0  0  0  0  0  0  0  0  0  0  0  0
    3.8957   59.6808   22.8889 C   0  0  0  0  0  0  0  0  0  0  0  0
    2.3945   50.2918   23.3634 C   0  0  0  0  0  0  0  0  0  0  0  0
    2.8427   55.8681   24.1497 C   0  0  0  0  0  0  0  0  0  0  0  0
    5.0735   57.9793   21.2213 C   0  0  0  0  0  0  0  0  0  0  0  0
    3.1970   55.7469   22.9962 C   0  0  0  0  0  0  0  0  0  0  0  0
    4.7627   59.4282   21.8317 C   0  0  0  0  0  0  0  0  0  0  0  0
    5.6198   59.8547   21.2322 C   0  0  0  0  0  0  0  0  0  0  0  0
    1.6916   50.3415   22.1099 C   0  0  0  0  0  0  0  0  0  0  0  0
  1  8  1  0
  1 21  1  0
  2 19  2  0
  3  8  2  0
  3 14  1  0
  4 24  1  0
  5 18  1  0
  5 25  1  0
  6 13  1  0
  7 13  2  3
  7 26  1  0
  8 17  1  0
  9 15  1  0
  9 19  1  0
  9 20  1  0
 10 16  1  0
 11 15  1  0
 11 18  1  0
 12 22  2  0
 13 25  1  0
 14 24  2  0
 16 29  1  0
 17 26  2  0
 18 28  1  0
 19 28  1  0
 21 29  1  0
 22 27  1  0
 23 29  1  0
 24 26  1  0
 25 27  1  0
 27 28  1  0
M  END
$$$$

     RDKit          3D

 29 31  0  0  0  0  0  0  0  0999 V2000
    3.7655   56.6859   22.8591 N   0  0  0  0  0  0  0  0  0  0  0  0
    6.4285   59.5911   20.3274 C   0  0  0  0  0  0  0  0  0  0  0  0
    2.4231   55.4149   24.3045 C   0  0  0  0  0  0  0  0  0  0  0  0
    2.9207   55.5571   23.0070 C   0  0  0  0  0  0  0  0  0  0  0  0
    1.1993   53.4908   23.9787 C   0  0  0  0  0  0  0  0  0  0  0  0
    4.7549   59.5342   22.2165 C   0  0  0  0  0  0  0  0  0  0  0  0
    5.9193   58.3934   20.4528 N   0  0  0  0  0  0  0  0  0  0  0  0
    6.6850   62.0518   20.8128 C   0  0  0  0  0  0  0  0  0  0  0  0
    2.9909   51.5399   20.8589 C   0  0  0  0  0  0  0  0  0  0  0  0
    7.4864   61.0900   19.9032 C   0  0  0  0  0  0  0  0  0  0  0  0
    2.3170   50.3662   23.3229 C   0  0  0  0  0  0  0  0  0  0  0  0
    4.2182   57.0860   21.9781 C   0  0  0  0  0  0  0  0  0  0  0  0
    7.4848   59.6781   19.3015 C   0  0  0  0  0  0  0  0  0  0  0  0
    4.4319   59.6154   24.3851 C   0  0  0  0  0  0  0  0  0  0  0  0
    0.8578   53.1190   20.3408 O   0  0  0  0  0  0  0  0  0  0  0  0
    3.1520   50.4526   19.8243 C   0  0  0  0  0  0  0  0  0  0  0  0
    1.5895   53.5167   22.6854 C   0  0  0  0  0  0  0  0  0  0  0  0
    5.5257   59.9917   21.4281 C   0  0  0  0  0  0  0  0  0  0  0  0
   -0.2603   52.2250   21.9663 O   0  0  0  0  0  0  0  0  0  0  0  0
    4.0122   59.6315   22.9133 C   0  0  0  0  0  0  0  0  0  0  0  0
    2.7426   56.3301   25.1585 O   0  0  0  0  0  0  0  0  0  0  0  0
    5.2749   62.2859   22.2960 O   0  0  0  0  0  0  0  0  0  0  0  0
    1.3029   50.3766   22.2808 C   0  0  0  0  0  0  0  0  0  0  0  0
    1.5720   54.4571   24.7846 C   0  0  0  0  0  0  0  0  0  0  0  0
    4.2545   56.0265   20.9726 O   0  0  0  0  0  0  0  0  0  0  0  0
    4.9743   58.3912   21.4992 C   0  0  0  0  0  0  0  0  0  0  0  0
    2.4782   54.5023   22.1506 C   0  0  0  0  0  0  0  0  0  0  0  0
    5.7562   61.5298   21.4773 C   0  0  0  0  0  0  0  0  0  0  0  0
    1.1684   52.3768   21.6176 S   0  0  0  0  0  0  0  0  0  0  0  0
  1  4  1  0
  1 12  1  0
  2  7  1  0
  2 13  1  0
  2 18  1  0
  3  4  2  0
  3 21  1  0
  3 24  1  0
  4 27  1  0
  5 17  1  0
  5 24  2  0
  6 18  1  0
  6 20  1  0
  6 26  1  0
  7 26  1  0
  8 10  1  0
  8 28  1  0
  9 16  1  0
  9 29  1  0
 10 13  1  0
 11 23  1  0
 12 25  2  0
 12 26  1  0
 14 20  1  0
 15 29  1  0
 17 27  2  0
 17 29  1  0
 18 28  1  0
 19 29  1  0
 22 28  2  0
 23 29  1  0
M  END
$$$$

     RDKit          3D

 27 29  0  0  0  0  0  0  0  0999 V2000
    6.8354   62.0596   20.7669 C   0  0  0  0  0  0  0  0  0  0  0  0
    5.8048   58.0907   20.6097 N   0  0  0  0  0  0  0  0  0  0  0  0
    3.1486   55.8031   23.0436 C   0  0  0  0  0  0  0  0  0  0  0  0
    1.6376   54.6479   24.7616 C   0  0  0  0  0  0  0  0  0  0  0  0
    6.4850   59.4849   20.4525 C   0  0  0  0  0  0  0  0  0  0  0  0
    5.1763   62.3194   22.4730 O   0  0  0  0  0  0  0  0  0  0  0  0
    5.7268   60.4166   21.4666 C   0  0  0  0  0  0  0  0  0  0  0  0
    1.6931   53.7271   22.4279 C   0  0  0  0  0  0  0  0  0  0  0  0
    4.4341   56.7814   21.6440 C   0  0  0  0  0  0  0  0  0  0  0  0
    1.1623   52.6458   21.3372 S   0  0  0  0  0  0  0  0  0  0  0  0
    4.8895   59.5001   22.1878 C   0  0  0  0  0  0  0  0  0  0  0  0
    2.8828   56.4163   25.1924 N   0  0  0  0  0  0  0  0  0  0  0  0
    2.7301   54.7316   22.2330 C   0  0  0  0  0  0  0  0  0  0  0  0
    2.5079   50.2005   23.0088 C   0  0  0  0  0  0  0  0  0  0  0  0
    1.2675   53.6635   23.7948 C   0  0  0  0  0  0  0  0  0  0  0  0
    4.9881   58.0523   21.5956 C   0  0  0  0  0  0  0  0  0  0  0  0
    2.5706   55.5724   24.4065 C   0  0  0  0  0  0  0  0  0  0  0  0
    3.1620   49.9838   19.7955 N   0  0  0  0  0  0  0  0  0  0  0  0
    6.9109   63.4483   20.7891 O   0  0  0  0  0  0  0  0  0  0  0  0
   -0.1248   51.9232   21.8236 O   0  0  0  0  0  0  0  0  0  0  0  0
    3.1197   51.3109   20.5629 C   0  0  0  0  0  0  0  0  0  0  0  0
    7.5881   59.5839   19.2930 C   0  0  0  0  0  0  0  0  0  0  0  0
    4.2932   55.9044   20.9441 N   0  0  0  0  0  0  0  0  0  0  0  0
    4.0304   56.7077   22.8167 N   0  0  0  0  0  0  0  0  0  0  0  0
    5.7087   61.7996   21.8875 C   0  0  0  0  0  0  0  0  0  0  0  0
    1.7731   49.7728   22.0191 C   0  0  0  0  0  0  0  0  0  0  0  0
    4.5573   59.6998   24.0345 C   0  0  0  0  0  0  0  0  0  0  0  0
  1 19  1  0
  1 25  1  0
  2  5  1  0
  2 16  1  0
  3 13  1  0
  3 17  2  0
  3 24  1  0
  4 15  2  0
  4 17  1  0
  5  7  1  0
  5 22  1  0
  6 25  2  0
  7 11  1  0
  7 25  1  0
  8 10  1  0
  8 13  2  0
  8 15  1  0
  9 16  1  0
  9 23  1  0
  9 24  1  0
 10 20  1  0
 11 16  1  0
 11 27  1  0
 12 17  1  0
 13 23  1  0
 14 26  1  0
 18 21  1  0
 20 26  1  0
 21 26  1  0
M  END
$$$$

     RDKit          3D

 29 30  0  0  0  0  0  0  0  0999 V2000
    5.3631   62.3866   22.2769 O   0  0  0  0  0  0  0  0  0  0  0  0
    4.5123   56.7725   21.5905 C   0  0  0  0  0  0  0  0  0  0  0  0
    5.9517   58.2027   20.5580 N   0  0  0  0  0  0  0  0  0  0  0  0
    4.7691   59.4011   21.9234 C   0  0  0  0  0  0  0  0  0  0  0  0
    3.1002   55.7076   23.0878 C   0  0  0  0  0  0  0  0  0  0  0  0
    0.8901   52.4683   21.6246 S   0  0  0  0  0  0  0  0  0  0  0  0
    1.0987   53.5756   23.9655 C   0  0  0  0  0  0  0  0  0  0  0  0
    1.4553   50.2990   22.3811 C   0  0  0  0  0  0  0  0  0  0  0  0
    3.0526   51.6776   20.6337 C   0  0  0  0  0  0  0  0  0  0  0  0
    4.3450   55.7821   20.7505 O   0  0  0  0  0  0  0  0  0  0  0  0
    1.4833   53.5650   22.5723 C   0  0  0  0  0  0  0  0  0  0  0  0
    2.5521   55.5107   24.3974 C   0  0  0  0  0  0  0  0  0  0  0  0
    5.8353   60.3640   21.2771 C   0  0  0  0  0  0  0  0  0  0  0  0
    6.9208   63.5871   20.7825 N   0  0  0  0  0  0  0  0  0  0  0  0
    3.7463   59.6561   22.9661 C   0  0  0  0  0  0  0  0  0  0  0  0
    7.7135   59.5976   19.2975 C   0  0  0  0  0  0  0  0  0  0  0  0
    3.2427   50.5052   19.7604 C   0  0  0  0  0  0  0  0  0  0  0  0
    6.8397   61.8268   20.7255 C   0  0  0  0  0  0  0  0  0  0  0  0
    5.1630   58.1239   21.3193 C   0  0  0  0  0  0  0  0  0  0  0  0
    3.9570   56.5969   22.5798 N   0  0  0  0  0  0  0  0  0  0  0  0
    0.9171   53.0148   20.2694 O   0  0  0  0  0  0  0  0  0  0  0  0
    2.4653   54.6259   22.4289 C   0  0  0  0  0  0  0  0  0  0  0  0
    2.2149   50.5009   23.1520 C   0  0  0  0  0  0  0  0  0  0  0  0
   -0.4792   52.0375   21.8834 O   0  0  0  0  0  0  0  0  0  0  0  0
    3.1114   56.5998   24.9965 C   0  0  0  0  0  0  0  0  0  0  0  0
    6.6157   59.2875   20.2860 C   0  0  0  0  0  0  0  0  0  0  0  0
    1.6067   54.5575   24.7445 C   0  0  0  0  0  0  0  0  0  0  0  0
    4.3100   59.4542   24.2428 C   0  0  0  0  0  0  0  0  0  0  0  0
    6.0830   61.7853   21.4273 C   0  0  0  0  0  0  0  0  0  0  0  0
  1 29  2  0
  2 10  2  0
  2 19  1  0
  2 20  1  0
  3 19  1  0
  3 26  1  0
  4 13  1  0
  4 15  1  0
  4 19  1  0
  5 12  1  0
  5 20  1  0
  5 22  2  0
  6  8  1  0
  6  9  1  0
  6 11  1  0
  6 21  1  0
  6 24  1  0
  7 11  2  0
  7 27  1  0
  8 23  1  0
  9 17  1  0
 11 22  1  0
 12 25  1  0
 12 27  2  0
 13 26  1  0
 13 29  1  0
 14 18  1  0
 15 28  1  0
 16 26  1  0
 18 29  1  0
M  END
$$$$

     RDKit          3D

 28 29  0  0  0  0  0  0  0  0999 V2000
    2.9250   55.5056   23.0940 C   0  0  0  0  0  0  0  0  0  0  0  0
    4.2054   56.7188   21.7344 C   0  0  0  0  0  0  0  0  0  0  0  0
    5.8454   61.4789   21.4345 C   0  0  0  0  0  0  0  0  0  0  0  0
    0.6304   53.1960   20.2759 O   0  0  0  0  0  0  0  0  0  0  0  0
    5.9490   58.1681   20.6194 N   0  0  0  0  0  0  0  0  0  0  0  0
    2.9679   50.4124   19.6378 C   0  0  0  0  0  0  0  0  0  0  0  0
    1.6305   53.4685   22.7187 C   0  0  0  0  0  0  0  0  0  0  0  0
    7.0696   63.5337   20.7053 O   0  0  0  0  0  0  0  0  0  0  0  0
    4.7451   59.5238   22.0085 C   0  0  0  0  0  0  0  0  0  0  0  0
    5.3078   62.0493   22.0812 O   0  0  0  0  0  0  0  0  0  0  0  0
    2.3615   55.4118   24.3643 C   0  0  0  0  0  0  0  0  0  0  0  0
    1.1658   53.4634   24.0549 C   0  0  0  0  0  0  0  0  0  0  0  0
    2.0953   50.3806   22.0453 C   0  0  0  0  0  0  0  0  0  0  0  0
    7.6629   59.8285   19.4223 C   0  0  0  0  0  0  0  0  0  0  0  0
    4.9413   58.0808   21.4983 C   0  0  0  0  0  0  0  0  0  0  0  0
    4.1092   59.6202   24.1473 C   0  0  0  0  0  0  0  0  0  0  0  0
    6.5554   59.5773   20.3526 C   0  0  0  0  0  0  0  0  0  0  0  0
    3.1476   51.4697   20.7341 C   0  0  0  0  0  0  0  0  0  0  0  0
    4.1887   55.7756   20.8686 O   0  0  0  0  0  0  0  0  0  0  0  0
    2.5905   56.3680   25.2541 O   0  0  0  0  0  0  0  0  0  0  0  0
    1.4689   54.3980   24.9189 C   0  0  0  0  0  0  0  0  0  0  0  0
    2.6184   54.5711   22.2520 C   0  0  0  0  0  0  0  0  0  0  0  0
    3.7259   56.6585   22.8725 N   0  0  0  0  0  0  0  0  0  0  0  0
    2.5955   50.3640   23.4953 C   0  0  0  0  0  0  0  0  0  0  0  0
    6.8998   62.2157   20.6811 C   0  0  0  0  0  0  0  0  0  0  0  0
    5.6111   60.4204   21.4288 C   0  0  0  0  0  0  0  0  0  0  0  0
    1.8901   51.3841   21.4990 C   0  0  0  0  0  0  0  0  0  0  0  0
    3.9568   59.6814   22.7845 C   0  0  0  0  0  0  0  0  0  0  0  0
  1 11  1  0
  1 22  2  0
  1 23  1  0
  2 15  1  0
  2 19  2  0
  2 23  1  0
  3 10  2  0
  3 25  1  0
  3 26  1  0
  4 27  1  0
  5 15  1  0
  5 17  1  0
  6 18  1  0
  7 12  2  0
  7 22  1  0
  7 27  1  0
  8 25  1  0
  9 15  1  0
  9 26  1  0
  9 28  1  0
 11 20  1  0
 11 21  2  0
 12 21  1  0
 13 24  1  0
 13 27  1  0
 14 17  1  0
 16 28  2  0
 17 26  1  0
 18 27  1  0
M  END
$$$$

     RDKit          3D

 28 29  0  0  0  0  0  0  0  0999 V2000
    6.8588   62.1946   20.6175 C   0  0  0  0  0  0  0  0  0  0  0  0
    5.8489   58.2249   20.5058 N   0  0  0  0  0  0  0  0  0  0  0  0
    1.0311   52.3178   21.8095 C   0  0  0  0  0  0  0  0  0  0  0  0
    2.4516   55.5389   24.1887 C   0  0  0  0  0  0  0  0  0  0  0  0
    2.3575   54.5147   21.8843 C   0  0  0  0  0  0  0  0  0  0  0  0
    5.1683   62.3521   22.1914 O   0  0  0  0  0  0  0  0  0  0  0  0
   -0.2768   51.8058   22.0781 O   0  0  0  0  0  0  0  0  0  0  0  0
    4.4945   59.6237   22.0808 C   0  0  0  0  0  0  0  0  0  0  0  0
    1.1103   53.4822   23.8714 C   0  0  0  0  0  0  0  0  0  0  0  0
    2.9450   51.5019   20.6703 C   0  0  0  0  0  0  0  0  0  0  0  0
    1.6546   50.3669   21.9513 C   0  0  0  0  0  0  0  0  0  0  0  0
    5.3934   60.3554   21.3783 C   0  0  0  0  0  0  0  0  0  0  0  0
    7.6400   59.7463   19.2443 C   0  0  0  0  0  0  0  0  0  0  0  0
    6.9425   63.5749   20.6463 O   0  0  0  0  0  0  0  0  0  0  0  0
    3.0434   50.2938   19.6635 C   0  0  0  0  0  0  0  0  0  0  0  0
    4.9637   58.1414   21.3613 C   0  0  0  0  0  0  0  0  0  0  0  0
    6.4923   59.7815   20.3883 C   0  0  0  0  0  0  0  0  0  0  0  0
    2.8699   56.4244   25.1637 O   0  0  0  0  0  0  0  0  0  0  0  0
    1.5658   54.4584   24.5822 C   0  0  0  0  0  0  0  0  0  0  0  0
    1.1323   53.0129   20.6509 N   0  0  0  0  0  0  0  0  0  0  0  0
    2.2913   50.3939   23.2457 C   0  0  0  0  0  0  0  0  0  0  0  0
    1.5982   53.4861   22.4485 C   0  0  0  0  0  0  0  0  0  0  0  0
    4.1763   59.7407   23.6133 C   0  0  0  0  0  0  0  0  0  0  0  0
    1.9108   51.2807   21.5478 C   0  0  0  0  0  0  0  0  0  0  0  0
    3.6950   56.4724   22.7068 N   0  0  0  0  0  0  0  0  0  0  0  0
    3.0231   55.4909   22.8006 C   0  0  0  0  0  0  0  0  0  0  0  0
    5.7759   61.6700   21.4122 C   0  0  0  0  0  0  0  0  0  0  0  0
    4.3281   56.5868   21.3878 C   0  0  0  0  0  0  0  0  0  0  0  0
  1 14  1  0
  1 27  1  0
  2 16  1  0
  2 17  1  0
  3  7  1  0
  3 20  1  0
  3 22  1  0
  3 24  1  0
  4 18  1  0
  4 19  2  0
  4 26  1  0
  5 22  1  0
  5 26  2  0
  6 27  2  0
  8 12  1  0
  8 16  1  0
  8 23  1  0
  9 19  1  0
  9 22  2  0
 10 15  1  0
 10 24  1  0
 11 21  1  0
 11 24  1  0
 12 17  1  0
 12 27  1  0
 13 17  1  0
 16 28  1  0
 25 26  1  0
 25 28  1  0
M  END
$$$$

     RDKit          3D

 29 30  0  0  0  0  0  0  0  0999 V2000
    3.7199   56.3754   22.6724 N   0  0  0  0  0  0  0  0  0  0  0  0
    0.6167   52.4615   21.5746 S   0  0  0  0  0  0  0  0  0  0  0  0
    1.0363   53.4866   23.8895 C   0  0  0  0  0  0  0  0  0  0  0  0
    6.2235   58.4137   20.4566 N   0  0  0  0  0  0  0  0  0  0  0  0
    4.8764   59.5044   21.8888 C   0  0  0  0  0  0  0  0  0  0  0  0
    2.3830   50.1807   23.4807 C   0  0  0  0  0  0  0  0  0  0  0  0
    2.9308   55.4513   22.9012 C   0  0  0  0  0  0  0  0  0  0  0  0
    2.4441   55.4283   24.2121 C   0  0  0  0  0  0  0  0  0  0  0  0
    1.6304   51.4289   21.4988 N   0  0  0  0  0  0  0  0  0  0  0  0
    6.8200   59.7441   20.1909 C   0  0  0  0  0  0  0  0  0  0  0  0
    7.1529   62.2883   20.5370 C   0  0  0  0  0  0  0  0  0  0  0  0
    4.2821   55.7950   20.7873 O   0  0  0  0  0  0  0  0  0  0  0  0
    2.3263   54.4159   22.2254 C   0  0  0  0  0  0  0  0  0  0  0  0
    5.2230   58.3200   21.3504 C   0  0  0  0  0  0  0  0  0  0  0  0
    4.2917   59.3137   24.1016 C   0  0  0  0  0  0  0  0  0  0  0  0
    2.8023   51.5456   20.6543 C   0  0  0  0  0  0  0  0  0  0  0  0
    6.9086   63.4676   20.6505 N   0  0  0  0  0  0  0  0  0  0  0  0
    1.4693   50.1429   22.2204 C   0  0  0  0  0  0  0  0  0  0  0  0
    2.7897   50.3645   19.8217 N   0  0  0  0  0  0  0  0  0  0  0  0
    2.7804   56.5190   25.0162 O   0  0  0  0  0  0  0  0  0  0  0  0
    1.5282   54.4684   24.7267 C   0  0  0  0  0  0  0  0  0  0  0  0
    6.5761   61.2808   20.8511 C   0  0  0  0  0  0  0  0  0  0  0  0
   -0.3987   52.0695   21.8818 O   0  0  0  0  0  0  0  0  0  0  0  0
    3.7692   59.6189   22.7793 C   0  0  0  0  0  0  0  0  0  0  0  0
    1.4473   53.4537   22.5377 C   0  0  0  0  0  0  0  0  0  0  0  0
    4.2586   56.9860   21.7518 C   0  0  0  0  0  0  0  0  0  0  0  0
    7.6967   59.5068   19.3687 C   0  0  0  0  0  0  0  0  0  0  0  0
    5.6522   60.7845   21.4777 C   0  0  0  0  0  0  0  0  0  0  0  0
    5.3622   62.0478   21.9571 O   0  0  0  0  0  0  0  0  0  0  0  0
  1  7  1  0
  1 26  1  0
  2  9  1  0
  2 23  1  0
  3 21  2  0
  3 25  1  0
  4 10  2  0
  4 14  1  0
  5 14  2  0
  5 24  1  0
  5 28  1  0
  6 18  1  0
  7  8  2  0
  7 13  1  0
  8 20  1  0
  8 21  1  0
  9 16  1  0
  9 18  1  0
 10 22  1  0
 10 27  1  0
 11 17  2  0
 11 22  1  0
 12 26  2  0
 13 25  2  0
 14 26  1  0
 15 24  1  0
 16 19  1  0
 22 28  2  0
 23 25  1  0
 28 29  1  0
M  END
$$$$

     RDKit          3D

 28 30  0  0  0  0  0  0  0  0999 V2000
    4.1853   55.7580   20.8010 O   0  0  0  0  0  0  0  0  0  0  0  0
    3.1727   55.6416   23.0413 C   0  0  0  0  0  0  0  0  0  0  0  0
    1.8166   54.7413   24.7734 C   0  0  0  0  0  0  0  0  0  0  0  0
    1.4982   51.0420   21.5899 C   0  0  0  0  0  0  0  0  0  0  0  0
    3.9847   59.6552   23.2065 C   0  0  0  0  0  0  0  0  0  0  0  0
    5.7266   60.2993   21.3941 C   0  0  0  0  0  0  0  0  0  0  0  0
    3.0654   56.3723   25.3015 O   0  0  0  0  0  0  0  0  0  0  0  0
    5.8383   58.0832   20.4982 N   0  0  0  0  0  0  0  0  0  0  0  0
    7.4826   59.6705   19.3846 C   0  0  0  0  0  0  0  0  0  0  0  0
    6.7639   62.2858   20.8312 C   0  0  0  0  0  0  0  0  0  0  0  0
    2.8670   51.7810   20.7192 C   0  0  0  0  0  0  0  0  0  0  0  0
    0.7525   53.0226   20.0082 O   0  0  0  0  0  0  0  0  0  0  0  0
    4.8805   59.3298   22.0332 C   0  0  0  0  0  0  0  0  0  0  0  0
    1.2359   53.8393   23.8529 C   0  0  0  0  0  0  0  0  0  0  0  0
    2.7675   54.7439   22.1342 C   0  0  0  0  0  0  0  0  0  0  0  0
    4.3256   56.5578   21.7079 C   0  0  0  0  0  0  0  0  0  0  0  0
    2.9672   50.5536   19.6645 C   0  0  0  0  0  0  0  0  0  0  0  0
   -0.4649   52.0559   21.8901 O   0  0  0  0  0  0  0  0  0  0  0  0
    1.6413   53.8579   22.4209 C   0  0  0  0  0  0  0  0  0  0  0  0
    2.3158   50.3171   22.7039 C   0  0  0  0  0  0  0  0  0  0  0  0
    4.5894   59.4861   24.7070 C   0  0  0  0  0  0  0  0  0  0  0  0
    6.4464   59.3408   20.3761 C   0  0  0  0  0  0  0  0  0  0  0  0
    0.9578   52.4302   21.3335 S   0  0  0  0  0  0  0  0  0  0  0  0
    6.9053   63.7063   20.6461 O   0  0  0  0  0  0  0  0  0  0  0  0
    5.0186   57.9566   21.5357 C   0  0  0  0  0  0  0  0  0  0  0  0
    5.4678   62.2214   22.1526 O   0  0  0  0  0  0  0  0  0  0  0  0
    2.7026   55.7165   24.5558 C   0  0  0  0  0  0  0  0  0  0  0  0
    3.9544   56.5129   22.9141 N   0  0  0  0  0  0  0  0  0  0  0  0
  1 15  1  0
  1 16  1  0
  2 15  2  0
  2 27  1  0
  2 28  1  0
  3 14  1  0
  3 27  1  0
  4 20  1  0
  4 23  1  0
  5 13  1  0
  5 21  1  0
  6 13  1  0
  6 22  1  0
  6 26  1  0
  7 27  2  0
  8 22  1  0
  8 25  1  0
  9 22  1  0
 10 24  1  0
 10 26  1  0
 11 17  1  0
 11 23  1  0
 12 23  1  0
 13 25  1  0
 14 19  1  0
 15 19  1  0
 16 25  1  0
 16 28  2  0
 18 23  1  0
 19 23  1  0
M  END
$$$$

     RDKit          3D

 26 26  0  0  0  0  0  0  0  0999 V2000
    4.1950   56.9435   21.8040 C   0  0  0  0  0  0  0  0  0  0  0  0
    5.7133   61.1922   21.5827 C   0  0  0  0  0  0  0  0  0  0  0  0
    2.8587   55.7138   23.3505 C   0  0  0  0  0  0  0  0  0  0  0  0
    1.4761   50.1719   22.4963 C   0  0  0  0  0  0  0  0  0  0  0  0
    1.7883   54.8578   25.0514 C   0  0  0  0  0  0  0  0  0  0  0  0
    0.7998   52.4243   21.6362 S   0  0  0  0  0  0  0  0  0  0  0  0
    2.5416   54.7571   22.5710 C   0  0  0  0  0  0  0  0  0  0  0  0
    7.8446   59.7328   19.1763 C   0  0  0  0  0  0  0  0  0  0  0  0
    6.7557   61.8485   20.6432 C   0  0  0  0  0  0  0  0  0  0  0  0
    2.7351   56.1393   24.7513 O   0  0  0  0  0  0  0  0  0  0  0  0
    3.6743   59.4811   23.1997 C   0  0  0  0  0  0  0  0  0  0  0  0
    3.1631   50.2732   19.7677 C   0  0  0  0  0  0  0  0  0  0  0  0
    5.0650   62.1760   22.4601 O   0  0  0  0  0  0  0  0  0  0  0  0
    6.6930   59.7389   20.1453 C   0  0  0  0  0  0  0  0  0  0  0  0
    2.8171   51.4707   20.7304 C   0  0  0  0  0  0  0  0  0  0  0  0
   -0.5322   51.9575   21.9978 O   0  0  0  0  0  0  0  0  0  0  0  0
    1.1960   53.8497   24.3517 C   0  0  0  0  0  0  0  0  0  0  0  0
    6.8598   63.2055   20.7341 O   0  0  0  0  0  0  0  0  0  0  0  0
    3.5170   56.7591   22.9333 N   0  0  0  0  0  0  0  0  0  0  0  0
    4.9611   59.8235   21.8317 C   0  0  0  0  0  0  0  0  0  0  0  0
    4.2716   56.0335   20.9598 N   0  0  0  0  0  0  0  0  0  0  0  0
    1.7003   51.2833   21.6008 N   0  0  0  0  0  0  0  0  0  0  0  0
    0.7304   53.1012   20.4403 O   0  0  0  0  0  0  0  0  0  0  0  0
    5.0103   58.1282   21.3136 C   0  0  0  0  0  0  0  0  0  0  0  0
    4.4351   59.8625   24.4115 C   0  0  0  0  0  0  0  0  0  0  0  0
    2.1328   50.7161   23.2192 C   0  0  0  0  0  0  0  0  0  0  0  0
  1 19  1  0
  1 21  2  0
  1 24  1  0
  2  9  2  3
  2 13  1  0
  2 20  1  0
  3  7  1  0
  3 10  1  0
  3 19  1  0
  4 22  1  0
  4 26  1  0
  5 10  1  0
  5 17  1  0
  6 16  1  0
  6 22  1  0
  6 23  1  0
  7 17  1  0
  8 14  1  0
  9 14  1  0
  9 18  1  0
 11 20  1  0
 11 25  1  0
 12 15  1  0
 15 22  1  0
 17 26  1  0
 20 24  2  3
M  END
$$$$

     RDKit          3D

 26 27  0  0  0  0  0  0  0  0999 V2000
    4.2747   55.9520   20.6176 O   0  0  0  0  0  0  0  0  0  0  0  0
    6.5610   59.5568   20.4088 C   0  0  0  0  0  0  0  0  0  0  0  0
    2.6044   54.5997   22.1071 C   0  0  0  0  0  0  0  0  0  0  0  0
    6.9257   63.6872   20.6842 O   0  0  0  0  0  0  0  0  0  0  0  0
    5.7969   61.7405   21.5640 C   0  0  0  0  0  0  0  0  0  0  0  0
    0.9695   52.4390   21.5305 S   0  0  0  0  0  0  0  0  0  0  0  0
    1.3977   53.9463   23.9906 C   0  0  0  0  0  0  0  0  0  0  0  0
    4.2567   59.4983   24.4876 C   0  0  0  0  0  0  0  0  0  0  0  0
    2.9866   55.6594   24.3043 C   0  0  0  0  0  0  0  0  0  0  0  0
    3.2292   50.3559   19.7069 C   0  0  0  0  0  0  0  0  0  0  0  0
    4.9849   58.0008   21.4649 C   0  0  0  0  0  0  0  0  0  0  0  0
    4.3477   56.5088   21.7034 C   0  0  0  0  0  0  0  0  0  0  0  0
    4.0040   59.7801   23.1073 C   0  0  0  0  0  0  0  0  0  0  0  0
    6.8812   62.3261   20.6691 C   0  0  0  0  0  0  0  0  0  0  0  0
    3.0618   51.4962   20.6802 C   0  0  0  0  0  0  0  0  0  0  0  0
    2.2095   50.4518   23.2895 C   0  0  0  0  0  0  0  0  0  0  0  0
    2.0000   54.9072   24.7977 C   0  0  0  0  0  0  0  0  0  0  0  0
    1.9117   51.2433   21.7539 N   0  0  0  0  0  0  0  0  0  0  0  0
    0.6450   53.0578   20.2111 O   0  0  0  0  0  0  0  0  0  0  0  0
    6.0520   58.3101   20.5642 N   0  0  0  0  0  0  0  0  0  0  0  0
    7.6946   59.7675   19.3844 C   0  0  0  0  0  0  0  0  0  0  0  0
    5.8207   60.5207   21.6049 C   0  0  0  0  0  0  0  0  0  0  0  0
    1.6880   53.7818   22.6143 C   0  0  0  0  0  0  0  0  0  0  0  0
    3.3184   55.7145   22.7934 C   0  0  0  0  0  0  0  0  0  0  0  0
    4.9187   59.4369   22.0965 C   0  0  0  0  0  0  0  0  0  0  0  0
    3.8496   56.9142   23.1212 C   0  0  0  0  0  0  0  0  0  0  0  0
  1 12  2  0
  2 20  1  0
  2 21  1  0
  2 22  1  0
  3 23  2  0
  3 24  1  0
  4 14  1  0
  5 14  1  0
  5 22  1  0
  6 18  1  0
  6 19  1  0
  7 17  2  0
  7 23  1  0
  8 13  1  0
  9 17  1  0
  9 24  2  0
 10 15  1  0
 11 12  1  0
 11 20  1  0
 11 25  1  0
 12 26  1  0
 13 25  1  0
 15 18  1  0
 16 18  1  0
 19 23  1  0
 22 25  1  0
 24 26  1  0
M  END
$$$$

     RDKit          3D

 29 31  0  0  0  0  0  0  0  0999 V2000
    5.2483   62.1594   22.1753 O   0  0  0  0  0  0  0  0  0  0  0  0
    2.5431   55.3317   24.0938 C   0  0  0  0  0  0  0  0  0  0  0  0
    5.9974   58.3472   20.3528 N   0  0  0  0  0  0  0  0  0  0  0  0
    4.2713   56.1143   20.7910 O   0  0  0  0  0  0  0  0  0  0  0  0
    2.2831   50.0970   23.3503 C   0  0  0  0  0  0  0  0  0  0  0  0
    4.7395   59.4454   22.0737 C   0  0  0  0  0  0  0  0  0  0  0  0
    1.4484   53.2688   22.4121 C   0  0  0  0  0  0  0  0  0  0  0  0
    2.0079   51.4244   21.4623 N   0  0  0  0  0  0  0  0  0  0  0  0
    1.6201   54.3434   24.5189 C   0  0  0  0  0  0  0  0  0  0  0  0
    6.7753   62.3142   20.9869 C   0  0  0  0  0  0  0  0  0  0  0  0
   -0.3410   52.0453   21.8895 O   0  0  0  0  0  0  0  0  0  0  0  0
    7.5076   59.7130   19.4324 C   0  0  0  0  0  0  0  0  0  0  0  0
    3.7763   56.6224   22.8090 N   0  0  0  0  0  0  0  0  0  0  0  0
    5.6459   60.3337   21.3491 C   0  0  0  0  0  0  0  0  0  0  0  0
    3.8020   59.7924   23.2023 C   0  0  0  0  0  0  0  0  0  0  0  0
    3.1128   51.5970   20.9076 C   0  0  0  0  0  0  0  0  0  0  0  0
    2.3921   54.1388   21.9587 C   0  0  0  0  0  0  0  0  0  0  0  0
    5.0406   58.2034   21.3921 C   0  0  0  0  0  0  0  0  0  0  0  0
    3.1986   50.3700   20.1378 C   0  0  0  0  0  0  0  0  0  0  0  0
    1.4971   50.0945   22.1143 C   0  0  0  0  0  0  0  0  0  0  0  0
    2.8918   56.1135   24.9499 N   0  0  0  0  0  0  0  0  0  0  0  0
    4.3950   59.6449   24.6721 C   0  0  0  0  0  0  0  0  0  0  0  0
    2.9489   55.4424   22.7644 C   0  0  0  0  0  0  0  0  0  0  0  0
    0.9952   53.3442   23.7441 C   0  0  0  0  0  0  0  0  0  0  0  0
    7.0517   61.7033   20.4262 C   0  0  0  0  0  0  0  0  0  0  0  0
    6.6251   63.4673   20.6976 O   0  0  0  0  0  0  0  0  0  0  0  0
    6.4459   59.6474   20.2861 C   0  0  0  0  0  0  0  0  0  0  0  0
    4.2238   56.9655   21.6941 C   0  0  0  0  0  0  0  0  0  0  0  0
    5.9824   61.7173   21.4212 C   0  0  0  0  0  0  0  0  0  0  0  0
  1 29  1  0
  2  9  2  0
  2 21  1  0
  2 23  1  0
  3 18  1  0
  3 27  1  0
  4 28  2  0
  5 20  1  0
  6 14  1  0
  6 15  1  0
  6 18  1  0
  7 11  1  0
  7 17  1  0
  7 24  2  0
  8 16  1  0
  8 20  1  0
  9 24  1  0
 10 25  1  0
 10 26  1  0
 10 29  1  0
 12 27  1  0
 13 23  1  0
 13 28  1  0
 14 27  1  0
 14 29  1  0
 15 22  1  0
 16 17  1  0
 16 19  1  0
 17 23  2  0
 18 28  1  0
 25 27  1  0
M  END
$$$$

     RDKit          3D

 28 30  0  0  0  0  0  0  0  0999 V2000
    1.5975   53.7764   22.4612 C   0  0  0  0  0  0  0  0  0  0  0  0
    6.0205   57.9784   20.3504 N   0  0  0  0  0  0  0  0  0  0  0  0
    4.3474   56.7564   21.5831 C   0  0  0  0  0  0  0  0  0  0  0  0
    1.7725   54.7769   24.7332 C   0  0  0  0  0  0  0  0  0  0  0  0
    0.9652   52.4456   21.5219 S   0  0  0  0  0  0  0  0  0  0  0  0
    4.2242   55.8005   20.7419 N   0  0  0  0  0  0  0  0  0  0  0  0
    5.8844   61.5909   21.7395 C   0  0  0  0  0  0  0  0  0  0  0  0
    4.7746   59.3528   21.9588 C   0  0  0  0  0  0  0  0  0  0  0  0
    4.4633   59.7254   24.3938 C   0  0  0  0  0  0  0  0  0  0  0  0
    2.6573   55.7045   24.1693 C   0  0  0  0  0  0  0  0  0  0  0  0
    1.4541   50.3151   22.1033 C   0  0  0  0  0  0  0  0  0  0  0  0
    3.7551   59.6940   23.0154 C   0  0  0  0  0  0  0  0  0  0  0  0
    3.8189   56.4668   22.7062 N   0  0  0  0  0  0  0  0  0  0  0  0
    1.3155   53.7572   23.8725 C   0  0  0  0  0  0  0  0  0  0  0  0
    5.6989   60.2605   21.3310 C   0  0  0  0  0  0  0  0  0  0  0  0
    3.2290   50.3659   19.8403 C   0  0  0  0  0  0  0  0  0  0  0  0
    7.5826   59.5099   19.4578 C   0  0  0  0  0  0  0  0  0  0  0  0
    5.1176   58.0219   21.3529 C   0  0  0  0  0  0  0  0  0  0  0  0
    2.3119   50.3031   23.2770 C   0  0  0  0  0  0  0  0  0  0  0  0
    0.8321   52.9904   20.5270 O   0  0  0  0  0  0  0  0  0  0  0  0
    5.1719   62.3156   22.5265 O   0  0  0  0  0  0  0  0  0  0  0  0
    6.6335   62.1321   20.8915 C   0  0  0  0  0  0  0  0  0  0  0  0
    2.9641   51.6937   20.8389 C   0  0  0  0  0  0  0  0  0  0  0  0
    6.4265   59.2332   20.3801 C   0  0  0  0  0  0  0  0  0  0  0  0
    3.1801   54.7572   21.2636 C   0  0  0  0  0  0  0  0  0  0  0  0
    2.9290   56.4333   24.9331 C   0  0  0  0  0  0  0  0  0  0  0  0
    2.9354   55.6020   22.9823 C   0  0  0  0  0  0  0  0  0  0  0  0
    2.5388   54.6911   22.1959 C   0  0  0  0  0  0  0  0  0  0  0  0
  1  5  1  0
  1 14  2  0
  1 28  1  0
  2 18  1  0
  2 24  1  0
  3  6  2  0
  3 13  1  0
  3 18  1  0
  4 10  2  0
  4 14  1  0
  5 20  1  0
  6 25  1  0
  7 15  1  0
  7 21  1  0
  7 22  2  0
  8 12  1  0
  8 15  1  0
  8 18  1  0
  9 12  1  0
 10 26  1  0
 10 27  1  0
 11 19  1  0
 11 23  1  0
 13 27  2  0
 15 24  1  0
 16 23  1  0
 17 24  1  0
 20 23  1  0
 25 28  2  0
 27 28  1  0
M  END
$$$$

     RDKit          3D

 26 27  0  0  0  0  0  0  0  0999 V2000
    1.5610   54.5456   24.7645 C   0  0  0  0  0  0  0  0  0  0  0  0
    3.7697   56.6943   22.8093 N   0  0  0  0  0  0  0  0  0  0  0  0
    6.5124   59.6411   20.3730 C   0  0  0  0  0  0  0  0  0  0  0  0
    5.0206   59.6196   22.0330 C   0  0  0  0  0  0  0  0  0  0  0  0
    3.9755   59.6787   23.1217 C   0  0  0  0  0  0  0  0  0  0  0  0
    6.0668   58.2372   20.4461 N   0  0  0  0  0  0  0  0  0  0  0  0
    2.4369   50.3920   22.9957 C   0  0  0  0  0  0  0  0  0  0  0  0
    3.0028   51.4685   20.6063 C   0  0  0  0  0  0  0  0  0  0  0  0
    3.0267   55.5904   22.8845 C   0  0  0  0  0  0  0  0  0  0  0  0
    1.7352   53.7560   22.2300 C   0  0  0  0  0  0  0  0  0  0  0  0
    6.7604   61.9465   20.7875 C   0  0  0  0  0  0  0  0  0  0  0  0
    5.3726   61.8760   22.5015 O   0  0  0  0  0  0  0  0  0  0  0  0
    2.8695   56.4452   25.1331 O   0  0  0  0  0  0  0  0  0  0  0  0
    5.0283   58.1904   21.4768 C   0  0  0  0  0  0  0  0  0  0  0  0
    4.2985   59.8102   24.4918 C   0  0  0  0  0  0  0  0  0  0  0  0
    1.5262   50.2928   21.9488 C   0  0  0  0  0  0  0  0  0  0  0  0
    4.3044   56.8929   21.8256 C   0  0  0  0  0  0  0  0  0  0  0  0
   -0.4557   51.8504   21.7934 O   0  0  0  0  0  0  0  0  0  0  0  0
    2.5278   55.5536   24.2262 C   0  0  0  0  0  0  0  0  0  0  0  0
    7.6880   59.5932   19.2582 C   0  0  0  0  0  0  0  0  0  0  0  0
    2.4572   54.5454   22.1348 C   0  0  0  0  0  0  0  0  0  0  0  0
    1.0984   53.6289   23.7772 C   0  0  0  0  0  0  0  0  0  0  0  0
    4.2088   55.9119   20.8164 O   0  0  0  0  0  0  0  0  0  0  0  0
    5.7987   60.6683   21.4598 C   0  0  0  0  0  0  0  0  0  0  0  0
    6.9927   63.1665   20.7062 O   0  0  0  0  0  0  0  0  0  0  0  0
    3.0240   50.5325   19.8506 C   0  0  0  0  0  0  0  0  0  0  0  0
  1 19  2  0
  1 22  1  0
  2  9  1  0
  2 17  1  0
  3  6  1  0
  3 20  1  0
  3 24  1  0
  4  5  1  0
  4 14  1  0
  4 24  1  0
  5 15  1  0
  6 14  1  0
  7 16  1  0
  8 16  1  0
  8 26  1  0
  9 19  1  0
  9 21  2  0
 10 18  1  0
 10 21  1  0
 10 22  2  0
 11 24  1  0
 11 25  2  0
 12 24  1  0
 13 19  1  0
 14 17  1  0
 16 18  1  0
 17 23  2  0
M  END
$$$$

     RDKit          3D

 27 28  0  0  0  0  0  0  0  0999 V2000
    4.2269   56.8733   22.1945 C   0  0  0  0  0  0  0  0  0  0  0  0
    2.2392   50.0670   23.2000 C   0  0  0  0  0  0  0  0  0  0  0  0
    2.3796   55.4731   24.1583 C   0  0  0  0  0  0  0  0  0  0  0  0
    0.9601   53.5873   23.8594 C   0  0  0  0  0  0  0  0  0  0  0  0
    6.8747   63.5209   20.6940 O   0  0  0  0  0  0  0  0  0  0  0  0
    1.0708   52.3811   21.6108 S   0  0  0  0  0  0  0  0  0  0  0  0
    5.8790   58.3576   20.5434 N   0  0  0  0  0  0  0  0  0  0  0  0
    7.5849   59.7726   19.4239 C   0  0  0  0  0  0  0  0  0  0  0  0
    5.2913   62.3142   22.6012 O   0  0  0  0  0  0  0  0  0  0  0  0
    2.4738   54.4420   22.1675 C   0  0  0  0  0  0  0  0  0  0  0  0
    4.4225   59.9955   24.4600 C   0  0  0  0  0  0  0  0  0  0  0  0
    4.9812   59.6023   22.1149 C   0  0  0  0  0  0  0  0  0  0  0  0
    6.8113   62.1853   20.7968 C   0  0  0  0  0  0  0  0  0  0  0  0
    4.2503   55.9594   21.0213 O   0  0  0  0  0  0  0  0  0  0  0  0
    2.8164   56.4179   24.9181 N   0  0  0  0  0  0  0  0  0  0  0  0
    5.0395   58.2187   21.5530 C   0  0  0  0  0  0  0  0  0  0  0  0
    6.5623   59.7473   20.4391 C   0  0  0  0  0  0  0  0  0  0  0  0
    1.3150   49.8901   22.1514 C   0  0  0  0  0  0  0  0  0  0  0  0
    1.3985   54.5698   24.6831 C   0  0  0  0  0  0  0  0  0  0  0  0
   -0.1700   51.8936   21.9824 O   0  0  0  0  0  0  0  0  0  0  0  0
    2.7274   51.3734   21.0577 C   0  0  0  0  0  0  0  0  0  0  0  0
    3.9281   59.8435   23.1156 C   0  0  0  0  0  0  0  0  0  0  0  0
    3.2340   55.8336   22.8216 C   0  0  0  0  0  0  0  0  0  0  0  0
    1.5156   53.5814   22.5831 C   0  0  0  0  0  0  0  0  0  0  0  0
    2.8195   50.3983   19.9999 C   0  0  0  0  0  0  0  0  0  0  0  0
    5.6841   61.2142   21.7953 C   0  0  0  0  0  0  0  0  0  0  0  0
    1.7879   51.0155   21.6469 C   0  0  0  0  0  0  0  0  0  0  0  0
  1 14  1  0
  1 16  1  0
  1 23  1  0
  2 18  1  0
  3 15  1  0
  3 19  2  0
  3 23  1  0
  4 19  1  0
  4 24  2  0
  5 13  1  0
  6 20  2  0
  6 27  1  0
  7 16  1  0
  7 17  1  0
  8 17  1  0
  9 26  1  0
 10 23  2  0
 10 24  1  0
 11 22  1  0
 12 16  1  0
 12 22  1  0
 12 26  1  0
 13 26  1  0
 17 26  1  0
 18 27  1  0
 21 25  1  0
 21 27  1  0
 24 27  1  0
M  END
$$$$

     RDKit          3D

 30 32  0  0  0  0  0  0  0  0999 V2000
    5.7093   61.4163   21.5888 C   0  0  0  0  0  0  0  0  0  0  0  0
    7.2438   60.9026   19.8778 C   0  0  0  0  0  0  0  0  0  0  0  0
    2.4083   55.5056   24.3454 C   0  0  0  0  0  0  0  0  0  0  0  0
    4.4134   56.6940   21.6220 C   0  0  0  0  0  0  0  0  0  0  0  0
    5.8221   57.9615   20.5874 N   0  0  0  0  0  0  0  0  0  0  0  0
    5.4724   60.0214   21.3223 C   0  0  0  0  0  0  0  0  0  0  0  0
    1.1033   53.6733   23.8558 C   0  0  0  0  0  0  0  0  0  0  0  0
    7.4383   59.5030   19.5006 C   0  0  0  0  0  0  0  0  0  0  0  0
    3.8026   59.7320   22.9949 C   0  0  0  0  0  0  0  0  0  0  0  0
    3.8226   56.5729   22.8389 N   0  0  0  0  0  0  0  0  0  0  0  0
    0.9344   52.5511   21.4421 S   0  0  0  0  0  0  0  0  0  0  0  0
    6.6999   63.3526   20.8169 N   0  0  0  0  0  0  0  0  0  0  0  0
    2.4100   50.3951   23.2926 C   0  0  0  0  0  0  0  0  0  0  0  0
    2.6193   54.5927   22.1695 C   0  0  0  0  0  0  0  0  0  0  0  0
    5.0173   62.1096   22.2753 O   0  0  0  0  0  0  0  0  0  0  0  0
    4.9353   57.9528   21.5648 C   0  0  0  0  0  0  0  0  0  0  0  0
    2.9912   50.5761   20.3618 C   0  0  0  0  0  0  0  0  0  0  0  0
    6.2607   59.0627   20.3935 C   0  0  0  0  0  0  0  0  0  0  0  0
   -0.4357   52.2527   21.7118 O   0  0  0  0  0  0  0  0  0  0  0  0
    0.8608   53.1456   20.1843 O   0  0  0  0  0  0  0  0  0  0  0  0
    1.5800   53.6940   22.4949 C   0  0  0  0  0  0  0  0  0  0  0  0
    1.5511   54.6310   24.7801 C   0  0  0  0  0  0  0  0  0  0  0  0
    2.7325   56.3350   25.2148 N   0  0  0  0  0  0  0  0  0  0  0  0
    4.2470   59.4757   24.4697 C   0  0  0  0  0  0  0  0  0  0  0  0
    1.4136   50.1969   22.3495 C   0  0  0  0  0  0  0  0  0  0  0  0
    4.7439   59.2723   22.1063 C   0  0  0  0  0  0  0  0  0  0  0  0
    6.4376   61.9195   20.9751 C   0  0  0  0  0  0  0  0  0  0  0  0
    4.4042   55.8239   20.8805 O   0  0  0  0  0  0  0  0  0  0  0  0
    3.0014   55.5960   23.0913 C   0  0  0  0  0  0  0  0  0  0  0  0
    2.9103   51.6385   21.0436 C   0  0  0  0  0  0  0  0  0  0  0  0
  1  6  1  0
  1 15  2  0
  1 27  1  0
  2  8  1  0
  2 27  2  0
  3 22  2  0
  3 23  1  0
  3 29  1  0
  4 10  1  0
  4 16  1  0
  4 28  2  0
  5 16  2  0
  5 18  1  0
  6 18  1  0
  6 26  2  0
  7 21  2  0
  7 22  1  0
  8 18  2  0
  9 24  1  0
  9 26  1  0
 10 29  1  0
 11 19  1  0
 11 20  1  0
 11 21  1  0
 11 25  1  0
 11 30  1  0
 12 27  1  0
 13 25  1  0
 14 21  1  0
 14 29  2  0
 16 26  1  0
 17 30  2  0
M  END
$$$$

     RDKit          3D

 30 32  0  0  0  0  0  0  0  0999 V2000
    5.8840   61.6298   21.6599 C   0  0  0  0  0  0  0  0  0  0  0  0
    2.3568   55.4077   24.4415 C   0  0  0  0  0  0  0  0  0  0  0  0
    0.9121   52.4422   21.8308 S   0  0  0  0  0  0  0  0  0  0  0  0
    4.3610   56.7411   21.7621 C   0  0  0  0  0  0  0  0  0  0  0  0
    2.3191   54.5033   22.3502 C   0  0  0  0  0  0  0  0  0  0  0  0
    6.3653   59.3203   20.5509 C   0  0  0  0  0  0  0  0  0  0  0  0
    0.9867   53.4360   24.0985 C   0  0  0  0  0  0  0  0  0  0  0  0
    3.8605   59.8976   23.0081 C   0  0  0  0  0  0  0  0  0  0  0  0
    3.7200   56.4670   22.9684 N   0  0  0  0  0  0  0  0  0  0  0  0
    4.8880   57.9119   21.4752 C   0  0  0  0  0  0  0  0  0  0  0  0
    1.3914   53.4437   22.7770 C   0  0  0  0  0  0  0  0  0  0  0  0
    5.5986   60.1582   21.4289 C   0  0  0  0  0  0  0  0  0  0  0  0
    7.4342   59.8840   19.6097 C   0  0  0  0  0  0  0  0  0  0  0  0
    4.4220   59.9034   24.3962 C   0  0  0  0  0  0  0  0  0  0  0  0
    1.4145   50.3605   22.2321 C   0  0  0  0  0  0  0  0  0  0  0  0
    5.2632   62.4288   22.4248 O   0  0  0  0  0  0  0  0  0  0  0  0
    6.7291   62.2595   20.8286 C   0  0  0  0  0  0  0  0  0  0  0  0
    2.9930   51.4566   20.7949 C   0  0  0  0  0  0  0  0  0  0  0  0
    7.0477   63.8549   20.6074 F   0  0  0  0  0  0  0  0  0  0  0  0
    2.2300   50.5570   23.6617 C   0  0  0  0  0  0  0  0  0  0  0  0
    5.8770   58.0827   20.6045 N   0  0  0  0  0  0  0  0  0  0  0  0
    1.8350   51.4427   21.6295 N   0  0  0  0  0  0  0  0  0  0  0  0
    4.2725   55.9601   20.7813 O   0  0  0  0  0  0  0  0  0  0  0  0
    2.8464   56.2800   25.1840 O   0  0  0  0  0  0  0  0  0  0  0  0
    1.3950   54.4641   24.9168 C   0  0  0  0  0  0  0  0  0  0  0  0
    2.8104   55.4316   23.1490 C   0  0  0  0  0  0  0  0  0  0  0  0
    3.0347   50.2078   20.0248 C   0  0  0  0  0  0  0  0  0  0  0  0
   -0.3796   52.1533   22.0006 O   0  0  0  0  0  0  0  0  0  0  0  0
    7.4471   61.3895   20.1248 C   0  0  0  0  0  0  0  0  0  0  0  0
    4.6721   59.3793   22.1239 C   0  0  0  0  0  0  0  0  0  0  0  0
  1 12  1  0
  1 16  2  0
  1 17  1  0
  2 24  2  0
  2 25  1  0
  2 26  1  0
  3 22  1  0
  3 28  1  0
  4  9  1  0
  4 10  1  0
  4 23  2  0
  5 11  1  0
  5 26  1  0
  6 12  1  0
  6 13  1  0
  6 21  1  0
  7 11  1  0
  7 25  1  0
  8 14  1  0
  8 30  1  0
  9 26  1  0
 10 21  1  0
 10 30  1  0
 11 28  1  0
 12 30  1  0
 13 29  1  0
 15 20  1  0
 15 22  1  0
 17 19  1  0
 17 29  1  0
 18 22  1  0
 18 27  1  0
M  END
$$$$

     RDKit          3D

 26 27  0  0  0  0  0  0  0  0999 V2000
    3.0823   55.7775   22.8943 C   0  0  0  0  0  0  0  0  0  0  0  0
    6.1907   59.1324   20.4995 C   0  0  0  0  0  0  0  0  0  0  0  0
    2.0190   54.3730   23.9688 C   0  0  0  0  0  0  0  0  0  0  0  0
    7.4501   59.5785   19.3800 C   0  0  0  0  0  0  0  0  0  0  0  0
   -0.1642   52.2137   22.1490 O   0  0  0  0  0  0  0  0  0  0  0  0
    5.4215   60.0411   21.5115 C   0  0  0  0  0  0  0  0  0  0  0  0
    1.7273   53.7940   22.5241 C   0  0  0  0  0  0  0  0  0  0  0  0
    2.7434   56.1823   25.0844 O   0  0  0  0  0  0  0  0  0  0  0  0
    5.1597   62.1804   22.3141 O   0  0  0  0  0  0  0  0  0  0  0  0
    4.0841   55.9068   20.8608 O   0  0  0  0  0  0  0  0  0  0  0  0
    1.5878   50.2270   22.2631 C   0  0  0  0  0  0  0  0  0  0  0  0
    5.5465   57.8801   20.4915 N   0  0  0  0  0  0  0  0  0  0  0  0
    6.8480   62.1486   20.6162 C   0  0  0  0  0  0  0  0  0  0  0  0
    3.3129   50.3732   19.9820 C   0  0  0  0  0  0  0  0  0  0  0  0
    3.6930   59.6360   23.1303 C   0  0  0  0  0  0  0  0  0  0  0  0
    1.7450   51.3001   21.3936 C   0  0  0  0  0  0  0  0  0  0  0  0
    2.5083   50.3602   23.4121 C   0  0  0  0  0  0  0  0  0  0  0  0
    4.6110   59.2125   22.1600 C   0  0  0  0  0  0  0  0  0  0  0  0
    2.4670   55.3460   24.0708 C   0  0  0  0  0  0  0  0  0  0  0  0
    4.4338   59.5359   24.3774 C   0  0  0  0  0  0  0  0  0  0  0  0
    2.7891   54.7938   21.9429 C   0  0  0  0  0  0  0  0  0  0  0  0
    0.8152   53.2050   20.1858 O   0  0  0  0  0  0  0  0  0  0  0  0
    5.8340   61.3687   21.4359 C   0  0  0  0  0  0  0  0  0  0  0  0
    3.0605   51.3596   20.8792 C   0  0  0  0  0  0  0  0  0  0  0  0
    1.0936   54.0299   24.4862 N   0  0  0  0  0  0  0  0  0  0  0  0
    4.5794   57.4333   21.5536 C   0  0  0  0  0  0  0  0  0  0  0  0
  1 19  1  0
  1 21  1  0
  2  4  1  0
  2  6  1  0
  2 12  1  0
  3  7  1  0
  3 19  1  0
  3 25  1  0
  5 16  1  0
  5 22  1  0
  6 18  1  0
  6 23  1  0
  7 21  1  0
  8 19  1  0
  9 23  1  0
 10 21  1  0
 10 26  1  0
 11 16  1  0
 11 17  1  0
 12 26  1  0
 13 23  1  0
 14 24  1  0
 15 18  1  0
 15 20  1  0
 16 24  1  0
 18 26  1  0
 21 22  1  0
M  END
$$$$

     RDKit          3D

 28 29  0  0  0  0  0  0  0  0999 V2000
    2.9603   55.4432   23.0127 C   0  0  0  0  0  0  0  0  0  0  0  0
    5.8839   61.5921   21.5452 C   0  0  0  0  0  0  0  0  0  0  0  0
    0.8563   52.4068   21.4659 S   0  0  0  0  0  0  0  0  0  0  0  0
    4.3638   56.9038   21.6525 C   0  0  0  0  0  0  0  0  0  0  0  0
    5.0860   58.1230   21.3223 C   0  0  0  0  0  0  0  0  0  0  0  0
    4.8648   59.5158   21.8572 C   0  0  0  0  0  0  0  0  0  0  0  0
    1.5330   50.1541   22.2977 C   0  0  0  0  0  0  0  0  0  0  0  0
    2.4851   55.4981   24.3383 C   0  0  0  0  0  0  0  0  0  0  0  0
    1.5337   53.5061   22.5203 C   0  0  0  0  0  0  0  0  0  0  0  0
    2.9186   51.4980   20.7530 C   0  0  0  0  0  0  0  0  0  0  0  0
    6.9143   62.0751   20.6526 C   0  0  0  0  0  0  0  0  0  0  0  0
    6.5465   59.5139   20.3119 C   0  0  0  0  0  0  0  0  0  0  0  0
    4.2972   55.8859   20.8093 O   0  0  0  0  0  0  0  0  0  0  0  0
    1.1107   53.4182   23.8831 C   0  0  0  0  0  0  0  0  0  0  0  0
    7.5935   59.7064   19.2513 C   0  0  0  0  0  0  0  0  0  0  0  0
    5.7138   60.5673   21.3763 C   0  0  0  0  0  0  0  0  0  0  0  0
    2.4415   54.5488   22.0979 C   0  0  0  0  0  0  0  0  0  0  0  0
    2.9565   56.2741   25.3028 O   0  0  0  0  0  0  0  0  0  0  0  0
    3.9657   59.8191   22.9552 C   0  0  0  0  0  0  0  0  0  0  0  0
   -0.4605   51.8766   21.8441 O   0  0  0  0  0  0  0  0  0  0  0  0
    3.0813   50.5078   19.6841 C   0  0  0  0  0  0  0  0  0  0  0  0
    6.0165   58.1518   20.2977 N   0  0  0  0  0  0  0  0  0  0  0  0
    4.4762   59.4926   24.3443 C   0  0  0  0  0  0  0  0  0  0  0  0
    0.6455   52.9685   20.2805 O   0  0  0  0  0  0  0  0  0  0  0  0
    5.3272   62.2490   22.3406 O   0  0  0  0  0  0  0  0  0  0  0  0
    1.6195   54.4856   24.6480 C   0  0  0  0  0  0  0  0  0  0  0  0
    3.9132   56.5750   22.8926 N   0  0  0  0  0  0  0  0  0  0  0  0
    2.3447   50.2531   23.4376 C   0  0  0  0  0  0  0  0  0  0  0  0
  1  8  2  0
  1 17  1  0
  1 27  1  0
  2 11  1  0
  2 16  1  0
  2 25  2  0
  3  7  1  0
  3  9  1  0
  3 10  1  0
  3 20  1  0
  3 24  1  0
  4  5  1  0
  4 13  2  0
  4 27  1  0
  5  6  1  0
  5 22  1  0
  6 16  1  0
  6 19  1  0
  7 28  1  0
  8 18  1  0
  8 26  1  0
  9 14  1  0
  9 17  2  0
 10 21  1  0
 12 15  1  0
 12 16  1  0
 12 22  1  0
 14 26  2  0
 19 23  1  0
M  END
$$$$

     RDKit          3D

 27 29  0  0  0  0  0  0  0  0999 V2000
    5.7017   61.5109   21.5950 C   0  0  0  0  0  0  0  0  0  0  0  0
    6.2795   59.4140   20.4477 C   0  0  0  0  0  0  0  0  0  0  0  0
    4.9236   59.4589   21.8841 C   0  0  0  0  0  0  0  0  0  0  0  0
    4.3908   56.8173   21.6721 C   0  0  0  0  0  0  0  0  0  0  0  0
    2.1920   50.7036   23.6094 C   0  0  0  0  0  0  0  0  0  0  0  0
    2.3524   55.2496   24.4604 C   0  0  0  0  0  0  0  0  0  0  0  0
    0.9273   53.5622   23.9610 C   0  0  0  0  0  0  0  0  0  0  0  0
    3.8590   59.7490   22.9483 C   0  0  0  0  0  0  0  0  0  0  0  0
    6.0559   58.2116   20.4572 N   0  0  0  0  0  0  0  0  0  0  0  0
    2.9374   55.4556   23.0924 C   0  0  0  0  0  0  0  0  0  0  0  0
    6.9007   63.6697   20.6593 O   0  0  0  0  0  0  0  0  0  0  0  0
    2.7138   51.8445   20.9094 C   0  0  0  0  0  0  0  0  0  0  0  0
    7.8537   59.9698   19.0842 C   0  0  0  0  0  0  0  0  0  0  0  0
    2.4620   54.4856   22.1351 C   0  0  0  0  0  0  0  0  0  0  0  0
    1.4132   50.4214   22.4344 C   0  0  0  0  0  0  0  0  0  0  0  0
    5.1675   62.3824   22.2518 O   0  0  0  0  0  0  0  0  0  0  0  0
    0.8366   53.1340   20.8587 O   0  0  0  0  0  0  0  0  0  0  0  0
    0.1265   51.5989   21.8740 O   0  0  0  0  0  0  0  0  0  0  0  0
    2.9357   50.6070   19.9978 C   0  0  0  0  0  0  0  0  0  0  0  0
    6.7962   62.1830   20.5939 C   0  0  0  0  0  0  0  0  0  0  0  0
    5.0369   58.1261   21.4452 C   0  0  0  0  0  0  0  0  0  0  0  0
    5.6087   60.2348   21.4526 C   0  0  0  0  0  0  0  0  0  0  0  0
    6.9130   60.4542   20.1834 C   0  0  0  0  0  0  0  0  0  0  0  0
    1.4731   54.5015   24.9413 C   0  0  0  0  0  0  0  0  0  0  0  0
    4.5504   59.8587   24.2820 C   0  0  0  0  0  0  0  0  0  0  0  0
    3.8125   56.4853   22.7387 N   0  0  0  0  0  0  0  0  0  0  0  0
    1.5939   53.5931   22.6314 C   0  0  0  0  0  0  0  0  0  0  0  0
  1 16  2  0
  1 20  1  0
  1 22  1  0
  2  9  1  0
  2 22  1  0
  2 23  1  0
  3  8  1  0
  3 21  1  0
  3 22  1  0
  4 21  1  0
  4 26  2  3
  5 15  1  0
  6 10  2  0
  6 24  1  0
  7 24  2  0
  7 27  1  0
  8 25  1  0
  9 21  1  0
 10 14  1  0
 10 26  1  0
 11 20  1  0
 12 15  1  0
 12 19  1  0
 13 23  1  0
 14 27  2  0
 15 18  1  0
 17 18  1  0
 17 27  1  0
 20 23  1  0
M  END
$$$$

     RDKit          3D

 29 30  0  0  0  0  0  0  0  0999 V2000
    4.8307   59.4739   22.0528 C   0  0  0  0  0  0  0  0  0  0  0  0
    2.5792   55.6069   24.1378 C   0  0  0  0  0  0  0  0  0  0  0  0
    6.1751   61.5359   21.3213 C   0  0  0  0  0  0  0  0  0  0  0  0
    6.5555   59.4177   20.3912 C   0  0  0  0  0  0  0  0  0  0  0  0
    1.4043   53.8644   23.6184 C   0  0  0  0  0  0  0  0  0  0  0  0
    2.8921   51.3455   20.9354 C   0  0  0  0  0  0  0  0  0  0  0  0
    2.9791   56.4211   25.1944 O   0  0  0  0  0  0  0  0  0  0  0  0
    6.0596   58.1183   20.5244 N   0  0  0  0  0  0  0  0  0  0  0  0
    0.8948   52.3106   21.5353 S   0  0  0  0  0  0  0  0  0  0  0  0
    3.9113   56.7688   22.9707 N   0  0  0  0  0  0  0  0  0  0  0  0
    2.1756   50.2996   23.1245 C   0  0  0  0  0  0  0  0  0  0  0  0
    6.9629   62.3590   20.4692 C   0  0  0  0  0  0  0  0  0  0  0  0
    3.0218   50.3950   19.7018 C   0  0  0  0  0  0  0  0  0  0  0  0
    5.0385   58.0867   21.5130 C   0  0  0  0  0  0  0  0  0  0  0  0
    5.4550   62.0380   22.1171 O   0  0  0  0  0  0  0  0  0  0  0  0
    2.7423   54.5492   22.0688 C   0  0  0  0  0  0  0  0  0  0  0  0
    1.2457   49.9669   21.9833 C   0  0  0  0  0  0  0  0  0  0  0  0
    4.3276   59.5474   24.4405 C   0  0  0  0  0  0  0  0  0  0  0  0
    3.3060   55.7017   22.7901 C   0  0  0  0  0  0  0  0  0  0  0  0
    3.8281   59.7818   23.0652 C   0  0  0  0  0  0  0  0  0  0  0  0
    7.6422   59.6173   19.3751 C   0  0  0  0  0  0  0  0  0  0  0  0
    4.3704   55.9788   20.8648 O   0  0  0  0  0  0  0  0  0  0  0  0
   -0.4280   51.8739   21.8600 O   0  0  0  0  0  0  0  0  0  0  0  0
    5.5871   60.4640   21.5302 C   0  0  0  0  0  0  0  0  0  0  0  0
    1.8249   54.7736   24.5878 C   0  0  0  0  0  0  0  0  0  0  0  0
    1.7423   51.3543   21.5653 N   0  0  0  0  0  0  0  0  0  0  0  0
    1.7511   53.7519   22.5072 C   0  0  0  0  0  0  0  0  0  0  0  0
    6.8571   63.6159   20.6189 O   0  0  0  0  0  0  0  0  0  0  0  0
    4.4757   56.8990   21.7519 C   0  0  0  0  0  0  0  0  0  0  0  0
  1 14  1  0
  1 20  1  0
  1 24  1  0
  2  7  1  0
  2 19  2  0
  2 25  1  0
  3 12  1  0
  3 15  2  0
  3 24  1  0
  4  8  1  0
  4 21  1  0
  4 24  1  0
  5 25  2  0
  5 27  1  0
  6 13  1  0
  6 17  1  0
  6 26  1  0
  8 14  1  0
  9 23  2  0
  9 26  1  0
 10 19  1  0
 10 29  1  0
 11 17  1  0
 12 28  2  0
 14 29  1  0
 16 19  1  0
 16 27  2  0
 18 20  1  0
 22 29  2  0
 26 27  1  0
M  END
$$$$

     RDKit          3D

 28 30  0  0  0  0  0  0  0  0999 V2000
    2.9390   55.6274   23.2559 C   0  0  0  0  0  0  0  0  0  0  0  0
    5.3048   62.2634   22.1286 O   0  0  0  0  0  0  0  0  0  0  0  0
    4.3877   56.1323   21.0997 O   0  0  0  0  0  0  0  0  0  0  0  0
    2.3830   55.5663   24.7171 C   0  0  0  0  0  0  0  0  0  0  0  0
    3.8697   56.9083   23.1160 N   0  0  0  0  0  0  0  0  0  0  0  0
    1.2674   52.4109   21.5218 S   0  0  0  0  0  0  0  0  0  0  0  0
    4.2964   59.2976   24.1237 C   0  0  0  0  0  0  0  0  0  0  0  0
    1.5616   54.4359   25.2332 C   0  0  0  0  0  0  0  0  0  0  0  0
    6.5664   58.9184   19.9402 C   0  0  0  0  0  0  0  0  0  0  0  0
    1.7001   53.7891   22.7099 C   0  0  0  0  0  0  0  0  0  0  0  0
    7.0606   61.0130   20.1441 C   0  0  0  0  0  0  0  0  0  0  0  0
    6.7866   63.4149   20.5810 O   0  0  0  0  0  0  0  0  0  0  0  0
    4.7324   57.4311   21.6569 C   0  0  0  0  0  0  0  0  0  0  0  0
   -0.0905   51.8538   21.9049 O   0  0  0  0  0  0  0  0  0  0  0  0
    7.3823   59.5985   19.6049 C   0  0  0  0  0  0  0  0  0  0  0  0
    3.8914   59.7915   22.7988 C   0  0  0  0  0  0  0  0  0  0  0  0
    5.6553   59.8699   21.3259 C   0  0  0  0  0  0  0  0  0  0  0  0
    2.7301   56.5327   25.4844 O   0  0  0  0  0  0  0  0  0  0  0  0
    6.3851   62.1582   20.8993 C   0  0  0  0  0  0  0  0  0  0  0  0
    2.4142   50.2360   22.7703 C   0  0  0  0  0  0  0  0  0  0  0  0
    3.2396   50.2043   19.8022 C   0  0  0  0  0  0  0  0  0  0  0  0
    2.6028   54.8605   22.2789 C   0  0  0  0  0  0  0  0  0  0  0  0
    1.2301   53.5954   24.2003 C   0  0  0  0  0  0  0  0  0  0  0  0
    3.0033   51.3540   20.7536 C   0  0  0  0  0  0  0  0  0  0  0  0
    0.8253   53.1135   20.4708 O   0  0  0  0  0  0  0  0  0  0  0  0
    5.9710   61.2977   21.2506 C   0  0  0  0  0  0  0  0  0  0  0  0
    4.8284   59.0650   21.8017 C   0  0  0  0  0  0  0  0  0  0  0  0
    5.9950   58.1393   20.4804 O   0  0  0  0  0  0  0  0  0  0  0  0
  1  4  2  0
  1  5  1  0
  1 22  1  0
  2 26  1  0
  3 13  1  0
  4  8  1  0
  4 18  1  0
  5 13  1  0
  6 10  1  0
  6 14  1  0
  6 20  1  0
  6 24  1  0
  6 25  1  0
  7 16  1  0
  8 23  2  0
  9 15  1  0
  9 17  2  0
  9 28  1  0
 10 22  2  0
 10 23  1  0
 11 15  2  0
 11 19  1  0
 12 19  1  0
 13 27  1  0
 13 28  1  0
 16 27  1  0
 17 26  1  0
 17 27  1  0
 19 26  2  0
 21 24  1  0
M  END
$$$$

     RDKit          3D

 28 30  0  0  0  0  0  0  0  0999 V2000
    4.0435   55.9981   21.0661 O   0  0  0  0  0  0  0  0  0  0  0  0
    5.4198   62.1993   22.3822 O   0  0  0  0  0  0  0  0  0  0  0  0
    1.6983   54.4619   24.8458 C   0  0  0  0  0  0  0  0  0  0  0  0
    3.2871   55.8290   23.0461 C   0  0  0  0  0  0  0  0  0  0  0  0
    5.8083   58.1791   20.6810 N   0  0  0  0  0  0  0  0  0  0  0  0
    1.6797   53.7085   22.4251 C   0  0  0  0  0  0  0  0  0  0  0  0
    5.5571   60.1517   21.4629 C   0  0  0  0  0  0  0  0  0  0  0  0
    7.3817   59.4397   19.5728 C   0  0  0  0  0  0  0  0  0  0  0  0
    3.0126   50.6108   19.9343 C   0  0  0  0  0  0  0  0  0  0  0  0
    1.5319   50.5312   22.3554 C   0  0  0  0  0  0  0  0  0  0  0  0
    0.9025   52.5703   21.4134 S   0  0  0  0  0  0  0  0  0  0  0  0
    2.6630   55.5597   24.7675 C   0  0  0  0  0  0  0  0  0  0  0  0
    2.7359   50.5463   23.4493 C   0  0  0  0  0  0  0  0  0  0  0  0
    4.0878   56.7297   22.1657 C   0  0  0  0  0  0  0  0  0  0  0  0
    6.9695   63.5131   20.7299 O   0  0  0  0  0  0  0  0  0  0  0  0
    6.7310   62.1167   20.7206 C   0  0  0  0  0  0  0  0  0  0  0  0
    4.8905   59.3213   22.0097 C   0  0  0  0  0  0  0  0  0  0  0  0
    0.9464   53.4609   20.1008 O   0  0  0  0  0  0  0  0  0  0  0  0
    4.8914   57.9952   21.7276 C   0  0  0  0  0  0  0  0  0  0  0  0
    1.1783   53.5347   23.8282 C   0  0  0  0  0  0  0  0  0  0  0  0
    3.3576   51.7576   20.6032 C   0  0  0  0  0  0  0  0  0  0  0  0
    1.9542   51.5103   21.4351 N   0  0  0  0  0  0  0  0  0  0  0  0
    4.6187   59.4266   24.1804 C   0  0  0  0  0  0  0  0  0  0  0  0
    2.6398   54.7890   22.5013 C   0  0  0  0  0  0  0  0  0  0  0  0
    6.4350   59.1978   20.4204 C   0  0  0  0  0  0  0  0  0  0  0  0
    7.2661   60.8748   19.8612 C   0  0  0  0  0  0  0  0  0  0  0  0
    5.8094   61.4551   21.6339 C   0  0  0  0  0  0  0  0  0  0  0  0
    4.2352   59.5594   23.1021 C   0  0  0  0  0  0  0  0  0  0  0  0
  1 14  1  0
  2 27  2  0
  3 12  2  0
  3 20  1  0
  4 12  1  0
  4 14  1  0
  4 24  2  0
  5 19  2  0
  5 25  1  0
  6 20  2  0
  6 22  1  0
  6 24  1  0
  7 17  2  0
  7 25  1  0
  7 27  1  0
  8 25  2  0
  8 26  1  0
  9 21  1  0
 10 13  1  0
 10 22  1  0
 11 18  2  0
 11 22  1  0
 13 21  1  0
 14 19  1  0
 15 16  1  0
 16 26  2  0
 16 27  1  0
 17 19  1  0
 17 28  1  0
 23 28  2  0
M  END
$$$$

     RDKit          3D

 27 28  0  0  0  0  0  0  0  0999 V2000
    1.3196   53.9686   24.1613 C   0  0  0  0  0  0  0  0  0  0  0  0
    2.5534   55.4854   24.1028 C   0  0  0  0  0  0  0  0  0  0  0  0
    4.3742   56.0006   20.7714 O   0  0  0  0  0  0  0  0  0  0  0  0
    6.1026   61.4951   21.5103 C   0  0  0  0  0  0  0  0  0  0  0  0
    5.0933   58.1354   21.4962 C   0  0  0  0  0  0  0  0  0  0  0  0
    1.4928   50.0967   22.1410 C   0  0  0  0  0  0  0  0  0  0  0  0
    4.9768   59.5463   22.0145 C   0  0  0  0  0  0  0  0  0  0  0  0
    4.5262   59.7051   24.4302 C   0  0  0  0  0  0  0  0  0  0  0  0
    3.7326   56.5929   22.9047 C   0  0  0  0  0  0  0  0  0  0  0  0
    6.5575   59.5251   20.3433 C   0  0  0  0  0  0  0  0  0  0  0  0
    2.5416   54.7048   22.0638 C   0  0  0  0  0  0  0  0  0  0  0  0
   -0.2746   52.0917   22.0469 O   0  0  0  0  0  0  0  0  0  0  0  0
    4.3652   56.8284   21.7148 C   0  0  0  0  0  0  0  0  0  0  0  0
    2.9384   56.1377   25.1966 O   0  0  0  0  0  0  0  0  0  0  0  0
    2.2245   50.1956   23.3171 C   0  0  0  0  0  0  0  0  0  0  0  0
    6.0611   58.2119   20.4732 N   0  0  0  0  0  0  0  0  0  0  0  0
    2.9888   49.8784   19.4658 C   0  0  0  0  0  0  0  0  0  0  0  0
    3.9844   59.6474   23.0652 C   0  0  0  0  0  0  0  0  0  0  0  0
    5.2690   62.2232   22.4474 O   0  0  0  0  0  0  0  0  0  0  0  0
    6.9223   63.4758   20.7786 O   0  0  0  0  0  0  0  0  0  0  0  0
    7.6442   59.5694   19.3039 C   0  0  0  0  0  0  0  0  0  0  0  0
    1.5966   53.7057   22.4828 C   0  0  0  0  0  0  0  0  0  0  0  0
    3.1913   55.7762   22.8781 C   0  0  0  0  0  0  0  0  0  0  0  0
    5.7474   60.5877   21.4933 C   0  0  0  0  0  0  0  0  0  0  0  0
    6.8012   62.1284   20.8501 C   0  0  0  0  0  0  0  0  0  0  0  0
    2.6655   50.8921   20.4278 C   0  0  0  0  0  0  0  0  0  0  0  0
    2.6951   51.9498   20.5320 C   0  0  0  0  0  0  0  0  0  0  0  0
  1  2  1  0
  1 22  1  0
  2 14  1  0
  2 23  1  0
  3 13  2  0
  4 19  1  0
  4 24  1  0
  4 25  1  0
  5  7  1  0
  5 13  1  0
  5 16  1  0
  6 12  1  0
  6 15  1  0
  6 26  1  0
  7 18  1  0
  7 24  1  0
  8 18  1  0
  9 13  1  0
  9 23  1  0
 10 16  1  0
 10 21  1  0
 10 24  1  0
 11 22  1  0
 11 23  1  0
 12 22  1  0
 17 26  1  0
 20 25  1  0
 26 27  2  0
M  END
$$$$

     RDKit          3D

 28 30  0  0  0  0  0  0  0  0999 V2000
    5.9995   61.7352   21.4199 C   0  0  0  0  0  0  0  0  0  0  0  0
    4.0728   56.5482   22.4443 N   0  0  0  0  0  0  0  0  0  0  0  0
    2.3614   55.4927   24.2724 C   0  0  0  0  0  0  0  0  0  0  0  0
    0.9491   53.4054   23.9864 C   0  0  0  0  0  0  0  0  0  0  0  0
    2.5262   50.1780   23.4375 C   0  0  0  0  0  0  0  0  0  0  0  0
    6.2111   59.3221   20.5356 C   0  0  0  0  0  0  0  0  0  0  0  0
    2.9191   55.4983   22.8390 C   0  0  0  0  0  0  0  0  0  0  0  0
    2.9627   51.6675   21.0676 C   0  0  0  0  0  0  0  0  0  0  0  0
    4.8479   59.4553   21.9162 C   0  0  0  0  0  0  0  0  0  0  0  0
    1.0239   52.4468   21.5763 S   0  0  0  0  0  0  0  0  0  0  0  0
    3.8321   59.9197   23.0130 C   0  0  0  0  0  0  0  0  0  0  0  0
    1.3543   54.5326   24.7382 C   0  0  0  0  0  0  0  0  0  0  0  0
    4.9128   57.7521   21.6806 C   0  0  0  0  0  0  0  0  0  0  0  0
    1.4757   53.3980   22.6115 C   0  0  0  0  0  0  0  0  0  0  0  0
    6.9541   63.4983   20.7984 O   0  0  0  0  0  0  0  0  0  0  0  0
    4.4046   59.7368   24.3270 C   0  0  0  0  0  0  0  0  0  0  0  0
    6.9805   60.1321   20.2452 C   0  0  0  0  0  0  0  0  0  0  0  0
    1.6148   50.1971   22.5104 C   0  0  0  0  0  0  0  0  0  0  0  0
    5.2952   62.1701   22.3097 O   0  0  0  0  0  0  0  0  0  0  0  0
   -0.1322   51.8859   22.0009 O   0  0  0  0  0  0  0  0  0  0  0  0
    4.1186   55.8992   21.1611 O   0  0  0  0  0  0  0  0  0  0  0  0
    3.0856   50.6136   20.0145 C   0  0  0  0  0  0  0  0  0  0  0  0
    5.9225   58.1126   20.5557 N   0  0  0  0  0  0  0  0  0  0  0  0
    0.8945   53.2309   20.4706 O   0  0  0  0  0  0  0  0  0  0  0  0
    7.8574   59.7559   19.0550 C   0  0  0  0  0  0  0  0  0  0  0  0
    2.3781   54.4600   22.3119 C   0  0  0  0  0  0  0  0  0  0  0  0
    5.5253   60.4499   21.5508 C   0  0  0  0  0  0  0  0  0  0  0  0
    7.1690   61.7936   20.4883 C   0  0  0  0  0  0  0  0  0  0  0  0
  1 19  1  0
  1 27  1  0
  1 28  1  0
  2  7  1  0
  2 13  1  0
  2 21  1  0
  3  7  2  0
  3 12  1  0
  4 12  2  0
  4 14  1  0
  5 18  2  0
  6 17  1  0
  6 23  1  0
  6 27  1  0
  7 26  1  0
  8 10  1  0
  8 22  1  0
  9 11  1  0
  9 13  1  0
  9 27  1  0
 10 14  1  0
 10 18  1  0
 10 20  1  0
 10 24  1  0
 11 16  1  0
 13 23  1  0
 14 26  2  0
 15 28  1  0
 17 25  1  0
 17 28  1  0
M  END
$$$$

     RDKit          3D

 28 29  0  0  0  0  0  0  0  0999 V2000
    1.7715   53.7820   22.5048 C   0  0  0  0  0  0  0  0  0  0  0  0
    2.5642   55.7472   24.5322 C   0  0  0  0  0  0  0  0  0  0  0  0
    5.1600   58.7274   21.2944 C   0  0  0  0  0  0  0  0  0  0  0  0
    3.7855   59.7375   23.2178 C   0  0  0  0  0  0  0  0  0  0  0  0
    4.5397   57.7599   21.9427 C   0  0  0  0  0  0  0  0  0  0  0  0
    1.4704   50.1058   22.2101 C   0  0  0  0  0  0  0  0  0  0  0  0
    6.6541   62.1347   20.8219 C   0  0  0  0  0  0  0  0  0  0  0  0
    3.7135   56.8065   23.0129 C   0  0  0  0  0  0  0  0  0  0  0  0
    4.2380   55.9550   20.7864 O   0  0  0  0  0  0  0  0  0  0  0  0
    1.8658   51.2308   21.4610 N   0  0  0  0  0  0  0  0  0  0  0  0
    1.2277   53.7989   23.8174 C   0  0  0  0  0  0  0  0  0  0  0  0
    5.4916   60.9851   21.7143 C   0  0  0  0  0  0  0  0  0  0  0  0
    7.6618   59.6198   19.4426 C   0  0  0  0  0  0  0  0  0  0  0  0
    2.6905   54.6187   22.2157 C   0  0  0  0  0  0  0  0  0  0  0  0
   -0.1331   52.0146   21.7571 O   0  0  0  0  0  0  0  0  0  0  0  0
    3.0891   50.1743   19.6194 C   0  0  0  0  0  0  0  0  0  0  0  0
    4.3414   59.7511   24.4114 C   0  0  0  0  0  0  0  0  0  0  0  0
    1.0601   52.9888   20.2510 O   0  0  0  0  0  0  0  0  0  0  0  0
    2.8040   56.4739   25.5276 O   0  0  0  0  0  0  0  0  0  0  0  0
    2.9249   51.3314   20.5115 C   0  0  0  0  0  0  0  0  0  0  0  0
    6.4265   59.4480   20.4321 C   0  0  0  0  0  0  0  0  0  0  0  0
    4.8101   59.6147   22.1288 C   0  0  0  0  0  0  0  0  0  0  0  0
    1.6871   54.8453   24.9407 C   0  0  0  0  0  0  0  0  0  0  0  0
    5.9236   58.0637   20.4240 O   0  0  0  0  0  0  0  0  0  0  0  0
    2.3476   50.2907   22.8370 C   0  0  0  0  0  0  0  0  0  0  0  0
    4.0942   56.4617   21.8944 C   0  0  0  0  0  0  0  0  0  0  0  0
    3.0692   55.7945   23.2280 C   0  0  0  0  0  0  0  0  0  0  0  0
    6.4578   61.1830   20.9581 C   0  0  0  0  0  0  0  0  0  0  0  0
  1 11  1  0
  1 14  1  0
  1 18  1  0
  2 19  2  0
  2 23  1  0
  2 27  1  0
  3  5  1  0
  3 22  1  0
  3 24  1  0
  4 17  1  0
  4 22  1  0
  5 26  1  0
  6 10  1  0
  6 15  1  0
  6 25  1  0
  7 28  2  0
  8 26  1  0
  8 27  1  0
  9 26  2  0
 10 20  1  0
 11 23  1  0
 12 22  1  0
 12 28  1  0
 13 21  1  0
 14 27  1  0
 15 18  1  0
 16 20  1  0
 21 24  1  0
 21 28  1  0
M  END
$$$$

     RDKit          3D

 27 27  0  0  0  0  0  0  0  0999 V2000
    4.2952   56.8446   21.7421 C   0  0  0  0  0  0  0  0  0  0  0  0
    5.0462   59.6705   21.8947 C   0  0  0  0  0  0  0  0  0  0  0  0
    1.0643   52.5722   21.1950 S   0  0  0  0  0  0  0  0  0  0  0  0
    6.8869   63.6593   20.7797 O   0  0  0  0  0  0  0  0  0  0  0  0
    5.2840   62.4070   22.3896 O   0  0  0  0  0  0  0  0  0  0  0  0
    2.8076   55.7831   23.9112 C   0  0  0  0  0  0  0  0  0  0  0  0
    3.5216   56.2933   22.8139 N   0  0  0  0  0  0  0  0  0  0  0  0
    3.0884   50.3296   19.6756 C   0  0  0  0  0  0  0  0  0  0  0  0
    5.0264   58.1193   21.5257 C   0  0  0  0  0  0  0  0  0  0  0  0
    3.0380   51.4881   20.7067 C   0  0  0  0  0  0  0  0  0  0  0  0
    6.1872   60.6016   21.0320 C   0  0  0  0  0  0  0  0  0  0  0  0
    2.7300   55.0413   22.2687 C   0  0  0  0  0  0  0  0  0  0  0  0
    6.7469   62.2579   20.8495 C   0  0  0  0  0  0  0  0  0  0  0  0
    1.4733   53.8446   23.4763 C   0  0  0  0  0  0  0  0  0  0  0  0
    6.6571   59.4370   20.2151 C   0  0  0  0  0  0  0  0  0  0  0  0
    0.5753   52.9885   20.0053 O   0  0  0  0  0  0  0  0  0  0  0  0
    1.5488   50.3537   21.9385 C   0  0  0  0  0  0  0  0  0  0  0  0
    4.2028   59.6262   24.6104 C   0  0  0  0  0  0  0  0  0  0  0  0
    3.9234   59.5940   22.9111 C   0  0  0  0  0  0  0  0  0  0  0  0
    1.9052   53.9330   22.0251 C   0  0  0  0  0  0  0  0  0  0  0  0
    1.8755   54.8161   24.5327 C   0  0  0  0  0  0  0  0  0  0  0  0
    1.7962   51.5416   21.2907 N   0  0  0  0  0  0  0  0  0  0  0  0
    4.4565   56.0635   20.6357 O   0  0  0  0  0  0  0  0  0  0  0  0
    2.5469   50.2514   23.1138 C   0  0  0  0  0  0  0  0  0  0  0  0
    5.8471   61.7626   21.6740 C   0  0  0  0  0  0  0  0  0  0  0  0
    2.6872   56.1820   24.7290 N   0  0  0  0  0  0  0  0  0  0  0  0
    7.4907   59.6137   19.4905 C   0  0  0  0  0  0  0  0  0  0  0  0
  1  7  1  0
  1  9  1  0
  1 23  2  0
  2  9  1  0
  2 11  2  3
  2 19  1  0
  3 16  2  0
  3 22  1  0
  4 13  1  0
  5 25  2  0
  6  7  1  0
  6 21  1  0
  6 26  1  0
  7 12  1  0
  8 10  1  0
  8 17  1  0
 10 22  1  0
 11 15  1  0
 11 25  1  0
 12 20  1  0
 13 25  1  0
 14 20  1  0
 14 21  1  0
 15 27  2  0
 17 24  1  0
 18 19  1  0
 20 22  1  0
M  END
$$$$

     RDKit          3D

 28 29  0  0  0  0  0  0  0  0999 V2000
    3.8565   56.6206   22.7656 N   0  0  0  0  0  0  0  0  0  0  0  0
    5.1616   62.2391   22.2668 O   0  0  0  0  0  0  0  0  0  0  0  0
    4.8741   59.4124   21.8910 C   0  0  0  0  0  0  0  0  0  0  0  0
    2.5442   54.8197   22.0840 C   0  0  0  0  0  0  0  0  0  0  0  0
    4.3771   56.9183   21.6954 C   0  0  0  0  0  0  0  0  0  0  0  0
    2.5048   55.6910   24.4975 C   0  0  0  0  0  0  0  0  0  0  0  0
    6.9629   62.1348   20.6419 C   0  0  0  0  0  0  0  0  0  0  0  0
    1.2006   53.7903   23.8367 C   0  0  0  0  0  0  0  0  0  0  0  0
    6.6344   59.5936   20.4157 C   0  0  0  0  0  0  0  0  0  0  0  0
    6.0940   58.3736   20.5368 N   0  0  0  0  0  0  0  0  0  0  0  0
    3.7599   59.4752   22.8703 C   0  0  0  0  0  0  0  0  0  0  0  0
    3.0783   51.3546   20.6769 C   0  0  0  0  0  0  0  0  0  0  0  0
    5.6485   60.4587   21.4376 C   0  0  0  0  0  0  0  0  0  0  0  0
    6.9315   63.6746   20.7425 O   0  0  0  0  0  0  0  0  0  0  0  0
    3.0480   55.6713   23.0794 C   0  0  0  0  0  0  0  0  0  0  0  0
    1.6293   54.6294   24.8549 C   0  0  0  0  0  0  0  0  0  0  0  0
    4.3410   56.0864   20.8687 O   0  0  0  0  0  0  0  0  0  0  0  0
    2.3423   50.3342   23.1592 C   0  0  0  0  0  0  0  0  0  0  0  0
    2.9696   56.6346   25.4510 O   0  0  0  0  0  0  0  0  0  0  0  0
    7.6375   59.7276   19.4500 C   0  0  0  0  0  0  0  0  0  0  0  0
    3.1712   50.1953   19.8187 C   0  0  0  0  0  0  0  0  0  0  0  0
    0.8538   53.2093   20.3996 O   0  0  0  0  0  0  0  0  0  0  0  0
   -0.2788   52.0510   21.8694 O   0  0  0  0  0  0  0  0  0  0  0  0
    1.6711   53.8448   22.5284 C   0  0  0  0  0  0  0  0  0  0  0  0
    4.2768   59.0741   24.1364 C   0  0  0  0  0  0  0  0  0  0  0  0
    5.0462   58.1338   21.3708 C   0  0  0  0  0  0  0  0  0  0  0  0
    1.8534   50.3264   21.8715 C   0  0  0  0  0  0  0  0  0  0  0  0
    5.8183   61.6477   21.6098 C   0  0  0  0  0  0  0  0  0  0  0  0
  1  5  1  0
  1 15  1  0
  2 28  2  0
  3 11  1  0
  3 13  1  0
  3 26  1  0
  4 15  2  0
  4 24  1  0
  5 17  2  0
  5 26  1  0
  6 15  1  0
  6 16  2  0
  6 19  1  0
  7 14  1  0
  7 28  1  0
  8 16  1  0
  8 24  2  0
  9 10  1  0
  9 13  1  0
  9 20  1  0
 10 26  1  0
 11 25  1  0
 12 21  1  0
 12 27  1  0
 13 28  1  0
 18 27  1  0
 22 23  1  0
 22 24  1  0
 23 27  1  0
M  END
$$$$

     RDKit          3D

 27 28  0  0  0  0  0  0  0  0999 V2000
    3.0026   55.4878   23.0850 C   0  0  0  0  0  0  0  0  0  0  0  0
    5.2834   62.1636   22.2640 O   0  0  0  0  0  0  0  0  0  0  0  0
    1.5794   53.4959   22.6321 C   0  0  0  0  0  0  0  0  0  0  0  0
    6.6363   59.3829   20.2493 C   0  0  0  0  0  0  0  0  0  0  0  0
    6.8601   61.8564   20.6532 C   0  0  0  0  0  0  0  0  0  0  0  0
    5.8747   60.2462   21.2003 C   0  0  0  0  0  0  0  0  0  0  0  0
    1.9413   51.2271   21.6611 C   0  0  0  0  0  0  0  0  0  0  0  0
   -0.3517   51.8471   21.8663 O   0  0  0  0  0  0  0  0  0  0  0  0
    1.0744   53.5909   23.9209 C   0  0  0  0  0  0  0  0  0  0  0  0
    2.3969   55.4994   24.3925 C   0  0  0  0  0  0  0  0  0  0  0  0
    4.9767   59.4272   21.9361 C   0  0  0  0  0  0  0  0  0  0  0  0
    6.0834   58.1420   20.4257 N   0  0  0  0  0  0  0  0  0  0  0  0
    4.5506   59.8238   24.4823 C   0  0  0  0  0  0  0  0  0  0  0  0
    1.5300   50.0494   22.3586 C   0  0  0  0  0  0  0  0  0  0  0  0
    3.1567   51.6820   20.7643 C   0  0  0  0  0  0  0  0  0  0  0  0
    3.8317   56.5692   22.8012 N   0  0  0  0  0  0  0  0  0  0  0  0
    1.5647   54.5878   24.7370 C   0  0  0  0  0  0  0  0  0  0  0  0
    2.4793   54.4207   22.3040 C   0  0  0  0  0  0  0  0  0  0  0  0
    3.2941   50.3482   19.7883 C   0  0  0  0  0  0  0  0  0  0  0  0
    2.8886   56.4561   25.1862 O   0  0  0  0  0  0  0  0  0  0  0  0
    2.4228   49.9928   23.4710 C   0  0  0  0  0  0  0  0  0  0  0  0
    5.0728   58.0517   21.4128 C   0  0  0  0  0  0  0  0  0  0  0  0
    7.6806   59.6497   19.3892 C   0  0  0  0  0  0  0  0  0  0  0  0
    5.9165   61.6967   21.4942 C   0  0  0  0  0  0  0  0  0  0  0  0
    4.0972   55.7886   20.9010 O   0  0  0  0  0  0  0  0  0  0  0  0
    4.2010   59.5863   23.1742 C   0  0  0  0  0  0  0  0  0  0  0  0
    4.3863   56.7208   21.6851 C   0  0  0  0  0  0  0  0  0  0  0  0
  1 10  1  0
  1 16  1  0
  1 18  2  0
  2 24  2  0
  3  9  2  0
  3 18  1  0
  4  6  1  0
  4 12  1  0
  4 23  1  0
  5 24  1  0
  6 11  1  0
  6 24  1  0
  7  8  1  0
  7 14  1  0
  7 15  1  0
  9 17  1  0
 10 17  2  0
 10 20  1  0
 11 22  1  0
 11 26  1  0
 12 22  1  0
 13 26  2  0
 14 21  1  0
 15 18  1  0
 15 19  1  0
 16 27  1  0
 22 27  1  0
 25 27  2  0
M  END
$$$$

     RDKit          3D

 29 30  0  0  0  0  0  0  0  0999 V2000
    6.4639   59.5511   20.4730 C   0  0  0  0  0  0  0  0  0  0  0  0
    5.8309   61.6772   21.4803 C   0  0  0  0  0  0  0  0  0  0  0  0
    5.0196   58.1069   21.4863 C   0  0  0  0  0  0  0  0  0  0  0  0
    3.8508   56.5747   22.9059 N   0  0  0  0  0  0  0  0  0  0  0  0
    1.1741   53.6633   23.6600 C   0  0  0  0  0  0  0  0  0  0  0  0
    6.9225   63.8593   20.7692 F   0  0  0  0  0  0  0  0  0  0  0  0
    2.6828   54.6521   21.9051 C   0  0  0  0  0  0  0  0  0  0  0  0
    4.8732   59.4712   21.9789 C   0  0  0  0  0  0  0  0  0  0  0  0
    2.2426   51.1247   21.3875 C   0  0  0  0  0  0  0  0  0  0  0  0
    6.9704   62.2367   20.6880 C   0  0  0  0  0  0  0  0  0  0  0  0
    2.4791   50.1991   23.3177 N   0  0  0  0  0  0  0  0  0  0  0  0
    7.6092   59.7369   19.4413 C   0  0  0  0  0  0  0  0  0  0  0  0
    2.5085   55.4708   24.1695 C   0  0  0  0  0  0  0  0  0  0  0  0
    4.4790   59.6386   24.3209 C   0  0  0  0  0  0  0  0  0  0  0  0
    3.0202   55.6244   22.8977 C   0  0  0  0  0  0  0  0  0  0  0  0
    4.3172   56.9236   21.8644 C   0  0  0  0  0  0  0  0  0  0  0  0
    5.8581   58.1767   20.6068 N   0  0  0  0  0  0  0  0  0  0  0  0
    1.5635   50.0919   22.1552 C   0  0  0  0  0  0  0  0  0  0  0  0
    5.3133   62.4196   22.3824 O   0  0  0  0  0  0  0  0  0  0  0  0
    2.9633   56.4482   25.1551 O   0  0  0  0  0  0  0  0  0  0  0  0
    3.9032   59.8317   23.0234 C   0  0  0  0  0  0  0  0  0  0  0  0
    3.2001   50.4256   20.0835 C   0  0  0  0  0  0  0  0  0  0  0  0
    5.6941   60.4663   21.4396 C   0  0  0  0  0  0  0  0  0  0  0  0
    1.7114   53.6364   22.2000 C   0  0  0  0  0  0  0  0  0  0  0  0
    0.0613   52.2586   21.7943 O   0  0  0  0  0  0  0  0  0  0  0  0
    0.9831   53.0728   20.3897 O   0  0  0  0  0  0  0  0  0  0  0  0
    2.9083   51.7353   21.0177 C   0  0  0  0  0  0  0  0  0  0  0  0
    4.1415   55.9960   20.9951 O   0  0  0  0  0  0  0  0  0  0  0  0
    1.5083   54.3215   24.3560 C   0  0  0  0  0  0  0  0  0  0  0  0
  1 12  1  0
  1 17  1  0
  1 23  1  0
  2 10  1  0
  2 19  2  0
  2 23  1  0
  3  8  1  0
  3 16  1  0
  3 17  1  0
  4 15  1  0
  4 16  1  0
  5 24  2  0
  5 29  1  0
  6 10  1  0
  7 15  2  0
  7 24  1  0
  8 21  1  0
  8 23  1  0
  9 18  1  0
  9 27  1  0
 11 18  1  0
 13 15  1  0
 13 20  1  0
 13 29  2  0
 14 21  1  0
 16 28  2  0
 22 27  1  0
 24 25  1  0
 25 26  1  0
 26 27  1  0
M  END
$$$$

     RDKit          3D

 27 28  0  0  0  0  0  0  0  0999 V2000
    1.6096   53.3903   22.7402 C   0  0  0  0  0  0  0  0  0  0  0  0
    6.7107   59.5443   20.2785 C   0  0  0  0  0  0  0  0  0  0  0  0
    4.3102   56.5860   21.8564 C   0  0  0  0  0  0  0  0  0  0  0  0
    5.6390   61.4715   21.7584 C   0  0  0  0  0  0  0  0  0  0  0  0
    5.9999   58.1452   20.4283 N   0  0  0  0  0  0  0  0  0  0  0  0
    2.6086   55.6149   24.0632 C   0  0  0  0  0  0  0  0  0  0  0  0
    1.5620   54.5727   24.6515 C   0  0  0  0  0  0  0  0  0  0  0  0
    3.8782   59.7105   23.1050 C   0  0  0  0  0  0  0  0  0  0  0  0
    3.9264   56.8313   22.9196 C   0  0  0  0  0  0  0  0  0  0  0  0
    5.2261   62.1758   22.3937 O   0  0  0  0  0  0  0  0  0  0  0  0
    6.9451   63.3586   20.7304 O   0  0  0  0  0  0  0  0  0  0  0  0
    4.5474   59.7396   24.3805 N   0  0  0  0  0  0  0  0  0  0  0  0
   -0.3221   52.0041   21.9407 O   0  0  0  0  0  0  0  0  0  0  0  0
    2.9228   51.6762   20.3368 C   0  0  0  0  0  0  0  0  0  0  0  0
    4.8549   57.9170   21.6180 C   0  0  0  0  0  0  0  0  0  0  0  0
    1.4948   50.1961   22.1918 C   0  0  0  0  0  0  0  0  0  0  0  0
    3.0596   50.2308   19.6914 C   0  0  0  0  0  0  0  0  0  0  0  0
    7.7379   59.7043   19.3209 C   0  0  0  0  0  0  0  0  0  0  0  0
    4.3700   56.0814   20.6582 O   0  0  0  0  0  0  0  0  0  0  0  0
    0.8108   53.0218   20.2514 O   0  0  0  0  0  0  0  0  0  0  0  0
    2.3975   50.4312   23.3870 C   0  0  0  0  0  0  0  0  0  0  0  0
    6.5360   61.9534   20.8960 C   0  0  0  0  0  0  0  0  0  0  0  0
    3.2335   55.5407   22.3386 C   0  0  0  0  0  0  0  0  0  0  0  0
    1.0782   53.3960   24.0459 C   0  0  0  0  0  0  0  0  0  0  0  0
    4.8060   59.4669   22.0053 C   0  0  0  0  0  0  0  0  0  0  0  0
    5.7782   60.3941   21.3551 C   0  0  0  0  0  0  0  0  0  0  0  0
    2.6188   54.3926   22.1097 C   0  0  0  0  0  0  0  0  0  0  0  0
  1 24  2  0
  1 27  1  0
  2  5  1  0
  2 18  1  0
  2 26  1  0
  3  9  1  0
  3 15  1  0
  3 19  1  0
  4 10  2  0
  4 22  1  0
  4 26  1  0
  5 15  1  0
  6  7  2  0
  6 23  1  0
  7 24  1  0
  8 12  1  0
  8 25  1  0
  9 23  1  0
 11 22  1  0
 13 20  1  0
 14 16  1  0
 14 17  1  0
 14 20  1  0
 15 25  1  0
 16 21  1  0
 21 24  1  0
 23 27  2  0
 25 26  1  0
M  END
$$$$

     RDKit          3D

 27 29  0  0  0  0  0  0  0  0999 V2000
    4.1121   55.7634   20.8236 O   0  0  0  0  0  0  0  0  0  0  0  0
    5.7742   61.3501   21.6577 C   0  0  0  0  0  0  0  0  0  0  0  0
    7.8194   59.9419   19.2329 C   0  0  0  0  0  0  0  0  0  0  0  0
    2.9257   55.5762   23.1582 C   0  0  0  0  0  0  0  0  0  0  0  0
    1.4445   53.6609   22.9392 C   0  0  0  0  0  0  0  0  0  0  0  0
    4.0382   56.6386   22.1577 C   0  0  0  0  0  0  0  0  0  0  0  0
    4.9128   59.5014   22.0741 C   0  0  0  0  0  0  0  0  0  0  0  0
    6.7327   59.4913   20.1601 C   0  0  0  0  0  0  0  0  0  0  0  0
    2.8462   51.6629   20.8766 C   0  0  0  0  0  0  0  0  0  0  0  0
    1.3382   50.3120   22.1657 C   0  0  0  0  0  0  0  0  0  0  0  0
    1.0467   53.6580   24.3183 C   0  0  0  0  0  0  0  0  0  0  0  0
    2.6254   55.7023   24.7739 C   0  0  0  0  0  0  0  0  0  0  0  0
    5.1275   58.1905   21.4135 C   0  0  0  0  0  0  0  0  0  0  0  0
    3.8535   59.6631   23.0590 C   0  0  0  0  0  0  0  0  0  0  0  0
    2.2646   50.4526   23.4167 C   0  0  0  0  0  0  0  0  0  0  0  0
    5.2671   62.3165   22.4721 O   0  0  0  0  0  0  0  0  0  0  0  0
    1.5933   54.6226   25.3696 C   0  0  0  0  0  0  0  0  0  0  0  0
    0.6850   53.0940   20.4175 O   0  0  0  0  0  0  0  0  0  0  0  0
    3.0053   50.6306   20.0262 C   0  0  0  0  0  0  0  0  0  0  0  0
    7.0239   62.1453   20.6830 C   0  0  0  0  0  0  0  0  0  0  0  0
    2.3301   54.5285   22.4927 C   0  0  0  0  0  0  0  0  0  0  0  0
    6.9145   63.6766   20.5102 O   0  0  0  0  0  0  0  0  0  0  0  0
    6.0255   58.5603   20.5167 C   0  0  0  0  0  0  0  0  0  0  0  0
    7.4255   61.2380   19.7927 C   0  0  0  0  0  0  0  0  0  0  0  0
    1.8863   51.5144   21.5716 N   0  0  0  0  0  0  0  0  0  0  0  0
    4.3524   59.4511   24.2204 C   0  0  0  0  0  0  0  0  0  0  0  0
    5.8534   60.4251   21.3650 C   0  0  0  0  0  0  0  0  0  0  0  0
  1  6  1  0
  2 16  1  0
  2 20  1  0
  2 27  1  0
  3  8  1  0
  3 24  1  0
  4  6  1  0
  4 12  1  0
  4 21  2  0
  5 11  2  0
  5 21  1  0
  5 25  1  0
  6 13  1  0
  7 13  1  0
  7 14  1  0
  7 27  1  0
  8 23  1  0
  8 27  1  0
  9 18  1  0
  9 19  1  0
  9 25  1  0
 10 15  1  0
 10 25  1  0
 11 17  1  0
 12 17  2  0
 13 23  1  0
 14 26  1  0
 20 22  1  0
 20 24  1  0
M  END
$$$$

     RDKit          3D

 28 30  0  0  0  0  0  0  0  0999 V2000
    3.9341   56.6712   22.7895 N   0  0  0  0  0  0  0  0  0  0  0  0
    4.2827   55.9914   20.7250 O   0  0  0  0  0  0  0  0  0  0  0  0
    5.8163   61.5892   21.6125 C   0  0  0  0  0  0  0  0  0  0  0  0
    5.3119   58.0818   21.5893 C   0  0  0  0  0  0  0  0  0  0  0  0
    1.6854   53.5181   22.4984 C   0  0  0  0  0  0  0  0  0  0  0  0
    2.4971   55.4574   24.3144 C   0  0  0  0  0  0  0  0  0  0  0  0
    6.4405   59.1422   20.3285 C   0  0  0  0  0  0  0  0  0  0  0  0
    4.0313   59.8400   22.9839 C   0  0  0  0  0  0  0  0  0  0  0  0
   -0.4073   51.7828   22.1334 O   0  0  0  0  0  0  0  0  0  0  0  0
    0.7660   53.0205   20.3915 O   0  0  0  0  0  0  0  0  0  0  0  0
    6.7245   62.0375   20.5948 C   0  0  0  0  0  0  0  0  0  0  0  0
    5.5919   60.1800   21.3811 C   0  0  0  0  0  0  0  0  0  0  0  0
    7.4718   59.7345   19.4539 C   0  0  0  0  0  0  0  0  0  0  0  0
    2.9449   50.8380   19.9158 C   0  0  0  0  0  0  0  0  0  0  0  0
    2.1544   50.1543   23.5064 C   0  0  0  0  0  0  0  0  0  0  0  0
    5.2718   62.4307   22.3171 S   0  0  0  0  0  0  0  0  0  0  0  0
    1.5604   54.5210   24.6753 C   0  0  0  0  0  0  0  0  0  0  0  0
    2.8779   56.4421   25.2166 O   0  0  0  0  0  0  0  0  0  0  0  0
    4.5466   59.7667   24.4502 C   0  0  0  0  0  0  0  0  0  0  0  0
    1.2026   50.0087   22.3638 C   0  0  0  0  0  0  0  0  0  0  0  0
    4.5115   56.8869   21.5823 C   0  0  0  0  0  0  0  0  0  0  0  0
    7.4421   61.1245   19.7691 C   0  0  0  0  0  0  0  0  0  0  0  0
    1.2040   53.5360   23.7871 C   0  0  0  0  0  0  0  0  0  0  0  0
    2.5346   51.8309   20.9442 C   0  0  0  0  0  0  0  0  0  0  0  0
    2.6199   54.4411   22.0766 C   0  0  0  0  0  0  0  0  0  0  0  0
    5.7192   58.1921   20.6628 C   0  0  0  0  0  0  0  0  0  0  0  0
    4.8495   59.4781   21.9996 C   0  0  0  0  0  0  0  0  0  0  0  0
    3.0456   55.6558   22.8716 C   0  0  0  0  0  0  0  0  0  0  0  0
  1 21  1  0
  1 28  1  0
  2 21  2  0
  3 11  1  0
  3 12  1  0
  3 16  2  0
  4 21  1  0
  4 26  1  0
  4 27  1  0
  5 10  1  0
  5 23  2  0
  5 25  1  0
  6 17  2  0
  6 18  1  0
  6 28  1  0
  7 12  1  0
  7 13  2  0
  7 26  1  0
  8 19  1  0
  8 27  1  0
  9 20  1  0
 10 24  1  0
 11 22  2  0
 12 27  2  0
 13 22  1  0
 14 24  1  0
 15 20  1  0
 17 23  1  0
 20 24  1  0
 25 28  2  0
M  END
$$$$

     RDKit          3D

 27 28  0  0  0  0  0  0  0  0999 V2000
    4.3944   56.5865   21.5127 C   0  0  0  0  0  0  0  0  0  0  0  0
    4.8551   59.3296   21.9929 C   0  0  0  0  0  0  0  0  0  0  0  0
    2.9741   55.5114   23.0496 C   0  0  0  0  0  0  0  0  0  0  0  0
    0.9700   53.5656   24.0014 C   0  0  0  0  0  0  0  0  0  0  0  0
    2.9136   51.3986   20.4755 C   0  0  0  0  0  0  0  0  0  0  0  0
    0.7753   52.3660   21.5083 S   0  0  0  0  0  0  0  0  0  0  0  0
    1.9231   50.3745   22.6062 C   0  0  0  0  0  0  0  0  0  0  0  0
    2.4871   55.4763   24.2387 C   0  0  0  0  0  0  0  0  0  0  0  0
    6.4528   59.6017   20.3302 C   0  0  0  0  0  0  0  0  0  0  0  0
    4.4769   59.5157   24.3665 C   0  0  0  0  0  0  0  0  0  0  0  0
    1.4332   53.4304   22.6480 C   0  0  0  0  0  0  0  0  0  0  0  0
    3.9159   56.6862   22.8368 N   0  0  0  0  0  0  0  0  0  0  0  0
    5.7966   58.1213   20.5373 N   0  0  0  0  0  0  0  0  0  0  0  0
    0.5214   52.9688   20.2159 O   0  0  0  0  0  0  0  0  0  0  0  0
    2.4214   54.4649   22.1630 C   0  0  0  0  0  0  0  0  0  0  0  0
    5.6596   60.2700   21.3502 C   0  0  0  0  0  0  0  0  0  0  0  0
    3.0219   56.5736   25.0341 O   0  0  0  0  0  0  0  0  0  0  0  0
    2.9410   50.2373   19.6383 N   0  0  0  0  0  0  0  0  0  0  0  0
   -0.5005   51.9513   21.9637 O   0  0  0  0  0  0  0  0  0  0  0  0
    7.0839   62.0134   20.4898 C   0  0  0  0  0  0  0  0  0  0  0  0
    7.0077   63.8193   20.6295 S   0  0  0  0  0  0  0  0  0  0  0  0
    4.9530   57.9074   21.4699 C   0  0  0  0  0  0  0  0  0  0  0  0
    3.9312   59.6226   23.0181 C   0  0  0  0  0  0  0  0  0  0  0  0
    7.5137   59.4321   19.3863 C   0  0  0  0  0  0  0  0  0  0  0  0
    1.5671   54.6314   24.8203 C   0  0  0  0  0  0  0  0  0  0  0  0
    6.2060   61.3410   21.1519 C   0  0  0  0  0  0  0  0  0  0  0  0
    5.4102   62.0275   22.1268 O   0  0  0  0  0  0  0  0  0  0  0  0
  1 12  1  0
  1 22  1  0
  2 16  1  0
  2 22  1  0
  2 23  1  0
  3  8  1  0
  3 12  1  0
  3 15  2  0
  4 11  2  0
  4 25  1  0
  5  6  1  0
  5 18  1  0
  6  7  1  0
  6 11  1  0
  6 14  1  0
  6 19  1  0
  8 17  1  0
  8 25  2  0
  9 13  1  0
  9 16  1  0
  9 24  1  0
 10 23  1  0
 11 15  1  0
 13 22  1  0
 16 26  1  0
 20 21  1  0
 20 26  2  3
 26 27  1  0
M  END
$$$$

     RDKit          3D

 30 32  0  0  0  0  0  0  0  0999 V2000
    1.6286   54.3757   24.6633 C   0  0  0  0  0  0  0  0  0  0  0  0
    1.0707   52.5276   21.7543 S   0  0  0  0  0  0  0  0  0  0  0  0
    6.1039   58.1546   20.3720 N   0  0  0  0  0  0  0  0  0  0  0  0
    4.4609   56.6585   21.6902 C   0  0  0  0  0  0  0  0  0  0  0  0
    2.6105   55.3412   24.2894 C   0  0  0  0  0  0  0  0  0  0  0  0
    1.1057   53.6286   23.8776 C   0  0  0  0  0  0  0  0  0  0  0  0
    6.7988   63.5819   20.7161 O   0  0  0  0  0  0  0  0  0  0  0  0
    4.4503   59.6873   24.2925 C   0  0  0  0  0  0  0  0  0  0  0  0
    5.7876   61.6861   21.5409 C   0  0  0  0  0  0  0  0  0  0  0  0
    7.5258   59.9269   19.5203 C   0  0  0  0  0  0  0  0  0  0  0  0
    6.5288   59.1450   20.3299 C   0  0  0  0  0  0  0  0  0  0  0  0
    2.7418   54.4631   22.2043 C   0  0  0  0  0  0  0  0  0  0  0  0
    3.9009   59.7578   22.9542 C   0  0  0  0  0  0  0  0  0  0  0  0
    2.5365   50.2865   23.9305 C   0  0  0  0  0  0  0  0  0  0  0  0
    3.0503   50.7282   20.1506 C   0  0  0  0  0  0  0  0  0  0  0  0
    6.7521   62.2865   20.6605 C   0  0  0  0  0  0  0  0  0  0  0  0
    1.7388   53.5259   22.7242 C   0  0  0  0  0  0  0  0  0  0  0  0
    4.3865   55.8971   20.7204 O   0  0  0  0  0  0  0  0  0  0  0  0
    0.7020   53.0368   20.6718 O   0  0  0  0  0  0  0  0  0  0  0  0
    3.9761   56.7107   22.7279 N   0  0  0  0  0  0  0  0  0  0  0  0
    2.9255   56.2095   25.1553 N   0  0  0  0  0  0  0  0  0  0  0  0
    4.8126   59.4663   21.8888 N   0  0  0  0  0  0  0  0  0  0  0  0
    3.0327   51.8864   20.9486 C   0  0  0  0  0  0  0  0  0  0  0  0
    1.5896   50.3345   22.6350 C   0  0  0  0  0  0  0  0  0  0  0  0
    7.4779   61.3385   19.8739 C   0  0  0  0  0  0  0  0  0  0  0  0
   -0.1995   51.8415   21.8233 O   0  0  0  0  0  0  0  0  0  0  0  0
    5.1350   58.0728   21.3052 C   0  0  0  0  0  0  0  0  0  0  0  0
    3.2039   55.5615   22.9749 C   0  0  0  0  0  0  0  0  0  0  0  0
    5.1827   62.2715   22.2564 O   0  0  0  0  0  0  0  0  0  0  0  0
    5.7738   60.1312   21.2676 C   0  0  0  0  0  0  0  0  0  0  0  0
  1  5  2  0
  1  6  1  0
  2 17  1  0
  2 19  1  0
  2 23  1  0
  2 24  1  0
  2 26  1  0
  3 11  1  0
  3 27  1  0
  4 18  2  0
  4 20  1  0
  4 27  1  0
  5 21  1  0
  5 28  1  0
  6 17  2  0
  7 16  1  0
  8 13  1  0
  9 16  1  0
  9 29  2  0
  9 30  1  0
 10 11  1  0
 10 25  1  0
 11 30  1  0
 12 17  1  0
 12 28  2  0
 13 22  1  0
 14 24  1  0
 15 23  1  0
 16 25  1  0
 20 28  1  0
 22 27  1  0
 22 30  1  0
M  END
$$$$

     RDKit          3D

 28 29  0  0  0  0  0  0  0  0999 V2000
    5.7032   61.0518   21.5299 C   0  0  0  0  0  0  0  0  0  0  0  0
    6.9358   62.0276   20.6008 C   0  0  0  0  0  0  0  0  0  0  0  0
    3.8883   56.7041   22.5000 N   0  0  0  0  0  0  0  0  0  0  0  0
    0.8900   52.5061   21.3857 S   0  0  0  0  0  0  0  0  0  0  0  0
    5.2966   62.2580   22.1970 O   0  0  0  0  0  0  0  0  0  0  0  0
    1.6859   54.6495   24.6487 C   0  0  0  0  0  0  0  0  0  0  0  0
    3.0703   50.2996   19.9167 C   0  0  0  0  0  0  0  0  0  0  0  0
    2.9999   55.5105   22.7467 C   0  0  0  0  0  0  0  0  0  0  0  0
    4.5495   59.6389   22.3303 C   0  0  0  0  0  0  0  0  0  0  0  0
    1.4462   50.1130   22.0446 C   0  0  0  0  0  0  0  0  0  0  0  0
    2.4691   55.5106   24.1353 C   0  0  0  0  0  0  0  0  0  0  0  0
    1.1688   53.6963   23.7115 C   0  0  0  0  0  0  0  0  0  0  0  0
    4.3583   56.0794   20.7706 O   0  0  0  0  0  0  0  0  0  0  0  0
    6.3213   59.8228   20.5640 C   0  0  0  0  0  0  0  0  0  0  0  0
    6.9786   63.4362   20.7250 O   0  0  0  0  0  0  0  0  0  0  0  0
    4.1175   59.9915   23.8723 C   0  0  0  0  0  0  0  0  0  0  0  0
    7.6791   59.7618   19.1742 C   0  0  0  0  0  0  0  0  0  0  0  0
    4.4537   56.9506   21.5690 C   0  0  0  0  0  0  0  0  0  0  0  0
    1.7554   51.2934   21.5152 N   0  0  0  0  0  0  0  0  0  0  0  0
    1.0212   52.9426   20.0724 O   0  0  0  0  0  0  0  0  0  0  0  0
   -0.4409   52.2390   21.7837 O   0  0  0  0  0  0  0  0  0  0  0  0
    2.8055   56.3477   25.1049 O   0  0  0  0  0  0  0  0  0  0  0  0
    2.4861   54.5827   22.0362 C   0  0  0  0  0  0  0  0  0  0  0  0
    2.8532   51.3408   20.7309 C   0  0  0  0  0  0  0  0  0  0  0  0
    2.2646   50.3175   23.0100 C   0  0  0  0  0  0  0  0  0  0  0  0
    4.8317   58.3665   21.6319 C   0  0  0  0  0  0  0  0  0  0  0  0
    5.9495   58.1392   20.5285 N   0  0  0  0  0  0  0  0  0  0  0  0
    1.5412   53.5782   22.3731 C   0  0  0  0  0  0  0  0  0  0  0  0
  1  2  1  0
  1  5  1  0
  1  9  1  0
  1 14  1  0
  2 15  1  0
  3  8  1  0
  3 18  1  0
  4 19  1  0
  4 20  1  0
  4 21  1  0
  4 28  1  0
  6 11  2  0
  6 12  1  0
  7 24  1  0
  8 11  1  0
  8 23  2  0
  9 16  1  0
  9 26  1  0
 10 19  1  0
 10 25  1  0
 11 22  1  0
 12 28  2  0
 13 18  1  0
 14 17  1  0
 14 27  1  0
 18 26  1  0
 19 24  1  0
 23 28  1  0
 26 27  1  0
M  END
$$$$

     RDKit          3D

 29 32  0  0  0  0  0  0  0  0999 V2000
    6.0003   61.9259   21.5396 C   0  0  0  0  0  0  0  0  0  0  0  0
    1.4511   54.5872   24.7938 C   0  0  0  0  0  0  0  0  0  0  0  0
    2.4022   55.6234   24.4643 C   0  0  0  0  0  0  0  0  0  0  0  0
    5.0019   58.1197   21.3986 C   0  0  0  0  0  0  0  0  0  0  0  0
    4.3409   59.8365   24.5899 N   0  0  0  0  0  0  0  0  0  0  0  0
    0.8695   52.5677   21.6074 S   0  0  0  0  0  0  0  0  0  0  0  0
    1.3685   53.6189   22.6532 C   0  0  0  0  0  0  0  0  0  0  0  0
    2.8365   55.7079   23.0762 C   0  0  0  0  0  0  0  0  0  0  0  0
    6.6503   63.2914   21.0108 N   0  0  0  0  0  0  0  0  0  0  0  0
    0.8948   53.5406   24.0124 C   0  0  0  0  0  0  0  0  0  0  0  0
    6.0249   58.1639   20.4758 N   0  0  0  0  0  0  0  0  0  0  0  0
    1.5232   50.5531   22.3815 C   0  0  0  0  0  0  0  0  0  0  0  0
    6.3223   60.1768   20.5951 C   0  0  0  0  0  0  0  0  0  0  0  0
    0.7160   53.1142   20.1967 O   0  0  0  0  0  0  0  0  0  0  0  0
    3.8002   59.7316   23.1355 C   0  0  0  0  0  0  0  0  0  0  0  0
    5.1086   62.1231   22.4037 O   0  0  0  0  0  0  0  0  0  0  0  0
    2.7524   56.4928   25.3120 O   0  0  0  0  0  0  0  0  0  0  0  0
    2.5708   51.7150   20.7304 C   0  0  0  0  0  0  0  0  0  0  0  0
    2.3898   50.4594   23.3762 C   0  0  0  0  0  0  0  0  0  0  0  0
    4.2423   55.7876   20.5732 O   0  0  0  0  0  0  0  0  0  0  0  0
    4.2962   56.9333   21.7244 C   0  0  0  0  0  0  0  0  0  0  0  0
    2.7189   53.9100   20.8785 C   0  0  0  0  0  0  0  0  0  0  0  0
    2.8704   50.7799   20.1186 C   0  0  0  0  0  0  0  0  0  0  0  0
    7.0760   59.3376   19.9878 C   0  0  0  0  0  0  0  0  0  0  0  0
    4.6370   59.4087   22.1672 C   0  0  0  0  0  0  0  0  0  0  0  0
    2.4973   54.7154   21.9947 C   0  0  0  0  0  0  0  0  0  0  0  0
    3.7566   55.8603   21.5031 C   0  0  0  0  0  0  0  0  0  0  0  0
    3.6098   56.7534   23.1048 N   0  0  0  0  0  0  0  0  0  0  0  0
    5.7299   60.3396   21.3890 C   0  0  0  0  0  0  0  0  0  0  0  0
  1  9  1  0
  1 16  2  0
  1 29  1  0
  2  3  1  0
  2 10  1  0
  3  8  1  0
  3 17  2  0
  4 11  2  0
  4 21  1  0
  4 25  1  0
  5 15  1  0
  6  7  1  0
  6 14  1  0
  7 10  1  0
  7 26  1  0
  8 26  1  0
  8 28  1  0
 11 24  1  0
 12 18  1  0
 12 19  1  0
 13 24  2  0
 13 29  1  0
 14 22  1  0
 15 25  1  0
 18 22  1  0
 18 23  2  0
 20 27  2  0
 21 27  1  0
 21 28  1  0
 22 26  1  0
 25 29  2  0
 26 27  1  0
M  END
$$$$

     RDKit          3D

 26 27  0  0  0  0  0  0  0  0999 V2000
    4.4107   56.7883   21.6421 C   0  0  0  0  0  0  0  0  0  0  0  0
    3.8857   56.8043   22.7466 N   0  0  0  0  0  0  0  0  0  0  0  0
    5.6804   60.3610   21.3483 C   0  0  0  0  0  0  0  0  0  0  0  0
    4.3046   55.9135   20.8013 O   0  0  0  0  0  0  0  0  0  0  0  0
    5.1391   59.3977   21.8447 C   0  0  0  0  0  0  0  0  0  0  0  0
    2.3146   50.3304   23.2771 C   0  0  0  0  0  0  0  0  0  0  0  0
    7.6461   59.5642   19.2518 C   0  0  0  0  0  0  0  0  0  0  0  0
    2.5117   54.4073   22.3423 C   0  0  0  0  0  0  0  0  0  0  0  0
    3.9661   59.8393   22.8143 C   0  0  0  0  0  0  0  0  0  0  0  0
    2.4207   55.4655   24.3646 C   0  0  0  0  0  0  0  0  0  0  0  0
    3.1430   50.7563   19.9713 C   0  0  0  0  0  0  0  0  0  0  0  0
    7.1165   62.1834   20.5011 C   0  0  0  0  0  0  0  0  0  0  0  0
    1.5661   53.4552   22.6704 C   0  0  0  0  0  0  0  0  0  0  0  0
    6.1793   58.2233   20.2795 N   0  0  0  0  0  0  0  0  0  0  0  0
    7.0852   63.6617   20.6150 O   0  0  0  0  0  0  0  0  0  0  0  0
    2.9283   56.4915   25.1906 O   0  0  0  0  0  0  0  0  0  0  0  0
    3.0790   51.9655   20.8130 C   0  0  0  0  0  0  0  0  0  0  0  0
   -0.1824   52.0920   21.9449 O   0  0  0  0  0  0  0  0  0  0  0  0
    4.4744   59.6140   24.2621 C   0  0  0  0  0  0  0  0  0  0  0  0
    1.5722   50.2989   22.1984 C   0  0  0  0  0  0  0  0  0  0  0  0
    6.6660   59.7524   20.2107 C   0  0  0  0  0  0  0  0  0  0  0  0
    3.2479   55.5594   22.9162 C   0  0  0  0  0  0  0  0  0  0  0  0
    1.4174   54.4426   24.8222 C   0  0  0  0  0  0  0  0  0  0  0  0
    0.9450   53.5200   24.0158 C   0  0  0  0  0  0  0  0  0  0  0  0
    5.1914   58.1361   21.2280 C   0  0  0  0  0  0  0  0  0  0  0  0
    6.2555   61.1808   21.1696 C   0  0  0  0  0  0  0  0  0  0  0  0
  1  2  1  0
  1  4  2  0
  1 25  1  0
  2 22  1  0
  3  5  1  0
  3 21  1  0
  3 26  1  0
  5  9  1  0
  5 25  1  0
  6 20  1  0
  7 21  1  0
  8 13  2  0
  8 22  1  0
  9 19  1  0
 10 16  1  0
 10 22  2  0
 10 23  1  0
 11 17  1  0
 12 15  1  0
 12 26  2  3
 13 18  1  0
 13 24  1  0
 14 21  1  0
 14 25  1  0
 17 20  1  0
 18 20  1  0
 23 24  2  0
M  END
$$$$

     RDKit          3D

 32 34  0  0  0  0  0  0  0  0999 V2000
    2.0602   51.4321   21.5254 N   0  0  0  0  0  0  0  0  0  0  0  0
    2.8447   55.6290   23.0594 C   0  0  0  0  0  0  0  0  0  0  0  0
    5.1650   58.0310   21.3571 C   0  0  0  0  0  0  0  0  0  0  0  0
    1.3452   53.7387   23.8237 C   0  0  0  0  0  0  0  0  0  0  0  0
    2.5452   55.7465   24.4004 C   0  0  0  0  0  0  0  0  0  0  0  0
    6.6896   62.2284   20.9332 C   0  0  0  0  0  0  0  0  0  0  0  0
    1.0576   52.5792   21.5448 S   0  0  0  0  0  0  0  0  0  0  0  0
    4.3362   56.6624   21.5371 C   0  0  0  0  0  0  0  0  0  0  0  0
    6.1869   60.2879   21.0409 C   0  0  0  0  0  0  0  0  0  0  0  0
    4.6037   59.3299   22.1270 C   0  0  0  0  0  0  0  0  0  0  0  0
    2.4323   54.6682   22.2208 C   0  0  0  0  0  0  0  0  0  0  0  0
    3.2566   50.4819   19.8455 C   0  0  0  0  0  0  0  0  0  0  0  0
    3.8275   60.0161   23.1086 C   0  0  0  0  0  0  0  0  0  0  0  0
    6.9796   63.6138   20.7120 O   0  0  0  0  0  0  0  0  0  0  0  0
    5.2492   62.2986   22.4248 S   0  0  0  0  0  0  0  0  0  0  0  0
    2.5156   50.2509   23.4807 N   0  0  0  0  0  0  0  0  0  0  0  0
    7.7263   59.8302   19.2042 C   0  0  0  0  0  0  0  0  0  0  0  0
    1.7005   54.7002   24.6791 C   0  0  0  0  0  0  0  0  0  0  0  0
   -0.1428   52.1857   21.8418 O   0  0  0  0  0  0  0  0  0  0  0  0
    4.2079   56.0216   20.5042 O   0  0  0  0  0  0  0  0  0  0  0  0
    7.2460   61.4617   20.1469 C   0  0  0  0  0  0  0  0  0  0  0  0
    1.5834   53.6639   22.5586 C   0  0  0  0  0  0  0  0  0  0  0  0
    3.6496   56.4660   22.7694 N   0  0  0  0  0  0  0  0  0  0  0  0
    2.8053   56.6327   25.3933 O   0  0  0  0  0  0  0  0  0  0  0  0
    4.4396   60.1491   24.5058 C   0  0  0  0  0  0  0  0  0  0  0  0
    5.4351   60.5225   21.6667 C   0  0  0  0  0  0  0  0  0  0  0  0
    0.9872   53.2995   20.2775 O   0  0  0  0  0  0  0  0  0  0  0  0
    3.8180   58.8961   23.7857 C   0  0  0  0  0  0  0  0  0  0  0  0
    1.9139   50.3624   22.4941 C   0  0  0  0  0  0  0  0  0  0  0  0
    2.9623   51.4305   20.5428 C   0  0  0  0  0  0  0  0  0  0  0  0
    6.6779   59.9163   20.2348 C   0  0  0  0  0  0  0  0  0  0  0  0
    6.0752   58.4759   20.2752 C   0  0  0  0  0  0  0  0  0  0  0  0
  1  7  1  0
  1 29  1  0
  1 30  1  0
  2  5  2  0
  2 11  1  0
  2 23  1  0
  3  8  1  0
  3 10  1  0
  3 32  1  0
  4 18  2  0
  4 22  1  0
  5 18  1  0
  5 24  1  0
  6 14  1  0
  6 15  1  0
  6 21  1  0
  7 19  1  0
  7 22  1  0
  7 27  1  0
  8 20  1  0
  8 23  1  0
  9 26  1  0
  9 31  1  0
 10 13  1  0
 10 26  1  0
 11 22  2  0
 12 30  1  0
 13 25  1  0
 13 28  1  0
 15 26  1  0
 16 29  1  0
 17 31  1  0
 21 31  1  0
 31 32  1  0
M  END
$$$$

     RDKit          3D

 28 29  0  0  0  0  0  0  0  0999 V2000
    4.4077   56.7957   21.6354 C   0  0  0  0  0  0  0  0  0  0  0  0
    5.8753   58.0089   20.5704 N   0  0  0  0  0  0  0  0  0  0  0  0
    3.8172   56.6039   22.7108 N   0  0  0  0  0  0  0  0  0  0  0  0
    5.4679   62.1758   22.0100 O   0  0  0  0  0  0  0  0  0  0  0  0
    2.3729   55.3621   24.3725 C   0  0  0  0  0  0  0  0  0  0  0  0
    5.6648   60.3465   21.5355 C   0  0  0  0  0  0  0  0  0  0  0  0
    0.9836   52.9519   20.6057 O   0  0  0  0  0  0  0  0  0  0  0  0
    2.4737   54.5170   22.4819 C   0  0  0  0  0  0  0  0  0  0  0  0
    3.1786   51.6910   20.4330 C   0  0  0  0  0  0  0  0  0  0  0  0
    4.8629   59.3856   22.1496 C   0  0  0  0  0  0  0  0  0  0  0  0
    1.9527   51.4315   21.4549 N   0  0  0  0  0  0  0  0  0  0  0  0
    4.2558   59.6267   24.1952 C   0  0  0  0  0  0  0  0  0  0  0  0
    6.7825   63.5362   20.7903 O   0  0  0  0  0  0  0  0  0  0  0  0
    6.4105   59.3373   20.5655 C   0  0  0  0  0  0  0  0  0  0  0  0
    6.6424   62.1306   21.0199 C   0  0  0  0  0  0  0  0  0  0  0  0
    2.2631   50.5861   23.7735 C   0  0  0  0  0  0  0  0  0  0  0  0
    4.9890   57.9927   21.5589 C   0  0  0  0  0  0  0  0  0  0  0  0
    1.0761   53.3204   24.1169 C   0  0  0  0  0  0  0  0  0  0  0  0
    1.5065   53.5109   22.7865 C   0  0  0  0  0  0  0  0  0  0  0  0
    1.6342   50.3174   22.1624 C   0  0  0  0  0  0  0  0  0  0  0  0
    7.5768   59.5284   19.5064 C   0  0  0  0  0  0  0  0  0  0  0  0
   -0.2533   52.2168   21.7396 O   0  0  0  0  0  0  0  0  0  0  0  0
    2.9286   56.3413   25.0848 N   0  0  0  0  0  0  0  0  0  0  0  0
    1.4962   54.5189   24.9764 C   0  0  0  0  0  0  0  0  0  0  0  0
    2.9269   55.5974   23.1774 C   0  0  0  0  0  0  0  0  0  0  0  0
    3.0621   50.4007   19.9288 C   0  0  0  0  0  0  0  0  0  0  0  0
    4.3477   56.0444   20.8128 O   0  0  0  0  0  0  0  0  0  0  0  0
    3.9606   59.7584   23.1080 C   0  0  0  0  0  0  0  0  0  0  0  0
  1  3  1  0
  1 17  1  0
  1 27  2  0
  2 14  1  0
  2 17  1  0
  3 25  1  0
  4  6  1  0
  4 15  1  0
  5 23  1  0
  5 24  2  0
  5 25  1  0
  6 10  1  0
  6 14  1  0
  7 11  1  0
  7 22  1  0
  8 19  1  0
  8 25  2  0
  9 11  1  0
  9 26  1  0
 10 17  1  0
 10 28  1  0
 11 20  1  0
 12 28  2  0
 13 15  1  0
 14 21  1  0
 16 20  1  0
 18 19  2  0
 18 24  1  0
 19 22  1  0
M  END
$$$$

     RDKit          3D

 27 27  0  0  0  0  0  0  0  0999 V2000
    4.3899   56.8764   21.6324 C   0  0  0  0  0  0  0  0  0  0  0  0
    2.4281   55.4893   24.3187 C   0  0  0  0  0  0  0  0  0  0  0  0
    4.8613   59.4753   21.8322 C   0  0  0  0  0  0  0  0  0  0  0  0
    2.9950   55.5261   23.0156 C   0  0  0  0  0  0  0  0  0  0  0  0
    1.4676   53.4578   22.6177 C   0  0  0  0  0  0  0  0  0  0  0  0
    5.9991   58.1989   20.3869 N   0  0  0  0  0  0  0  0  0  0  0  0
    1.6082   54.4946   24.7560 C   0  0  0  0  0  0  0  0  0  0  0  0
    1.2996   50.3861   22.0944 C   0  0  0  0  0  0  0  0  0  0  0  0
    6.9303   63.4984   20.6194 O   0  0  0  0  0  0  0  0  0  0  0  0
    0.7166   52.9279   20.3858 O   0  0  0  0  0  0  0  0  0  0  0  0
    3.0151   51.4278   20.6909 C   0  0  0  0  0  0  0  0  0  0  0  0
    4.3146   55.9207   20.7358 O   0  0  0  0  0  0  0  0  0  0  0  0
    7.6349   59.6083   19.2509 C   0  0  0  0  0  0  0  0  0  0  0  0
    3.9282   59.6828   22.9174 C   0  0  0  0  0  0  0  0  0  0  0  0
    2.3328   50.3032   23.1568 C   0  0  0  0  0  0  0  0  0  0  0  0
    3.2069   50.3473   19.6219 C   0  0  0  0  0  0  0  0  0  0  0  0
   -0.6562   51.8954   22.0135 O   0  0  0  0  0  0  0  0  0  0  0  0
    5.2876   62.0207   22.1307 O   0  0  0  0  0  0  0  0  0  0  0  0
    7.0277   62.1024   20.5556 C   0  0  0  0  0  0  0  0  0  0  0  0
    5.0654   58.0651   21.3089 C   0  0  0  0  0  0  0  0  0  0  0  0
    2.4050   54.4301   22.1767 C   0  0  0  0  0  0  0  0  0  0  0  0
    2.9469   56.3544   25.1569 O   0  0  0  0  0  0  0  0  0  0  0  0
    4.3223   59.8003   24.3465 C   0  0  0  0  0  0  0  0  0  0  0  0
    1.0010   53.5917   23.9756 C   0  0  0  0  0  0  0  0  0  0  0  0
    5.7304   60.8725   21.3199 C   0  0  0  0  0  0  0  0  0  0  0  0
    6.5973   59.4983   20.2043 C   0  0  0  0  0  0  0  0  0  0  0  0
    1.7732   51.3146   21.4289 N   0  0  0  0  0  0  0  0  0  0  0  0
  1  4  1  0
  1 12  1  0
  1 20  1  0
  2  4  1  0
  2  7  2  3
  2 22  1  0
  3 14  1  0
  3 20  1  0
  3 25  1  0
  4 21  1  0
  5 24  1  0
  6 20  1  0
  6 26  1  0
  7 24  1  0
  8 15  1  0
  8 17  1  0
  8 27  1  0
  9 19  1  0
 10 17  1  0
 11 16  1  0
 11 27  1  0
 13 26  1  0
 14 23  1  0
 18 25  1  0
 19 25  1  0
 21 27  1  0
 25 26  1  0
M  END
$$$$

     RDKit          3D

 27 29  0  0  0  0  0  0  0  0999 V2000
    5.6715   61.6235   21.5372 C   0  0  0  0  0  0  0  0  0  0  0  0
    5.8335   58.0891   20.4809 N   0  0  0  0  0  0  0  0  0  0  0  0
    7.4538   59.8053   19.4974 C   0  0  0  0  0  0  0  0  0  0  0  0
    4.4105   56.7024   21.7203 C   0  0  0  0  0  0  0  0  0  0  0  0
    1.5922   53.5818   22.7404 C   0  0  0  0  0  0  0  0  0  0  0  0
    3.1577   51.6466   20.7501 C   0  0  0  0  0  0  0  0  0  0  0  0
    2.5377   55.4946   24.3277 C   0  0  0  0  0  0  0  0  0  0  0  0
    1.0061   52.4577   21.6799 S   0  0  0  0  0  0  0  0  0  0  0  0
    3.7220   56.5909   22.7708 N   0  0  0  0  0  0  0  0  0  0  0  0
    1.3472   50.3400   22.3315 C   0  0  0  0  0  0  0  0  0  0  0  0
    4.5931   59.4628   22.1213 C   0  0  0  0  0  0  0  0  0  0  0  0
    2.4474   54.5230   22.3385 C   0  0  0  0  0  0  0  0  0  0  0  0
    3.2095   50.4778   19.7066 C   0  0  0  0  0  0  0  0  0  0  0  0
    1.6870   54.5132   24.8322 C   0  0  0  0  0  0  0  0  0  0  0  0
    5.3240   62.1363   22.2082 O   0  0  0  0  0  0  0  0  0  0  0  0
    4.1666   59.5676   23.5078 C   0  0  0  0  0  0  0  0  0  0  0  0
    4.9431   57.9085   21.3926 C   0  0  0  0  0  0  0  0  0  0  0  0
    6.9292   63.4269   20.5953 O   0  0  0  0  0  0  0  0  0  0  0  0
    2.9271   56.4340   25.1477 O   0  0  0  0  0  0  0  0  0  0  0  0
    6.3301   59.2750   20.3306 C   0  0  0  0  0  0  0  0  0  0  0  0
    2.3800   50.4041   23.3683 C   0  0  0  0  0  0  0  0  0  0  0  0
    4.3738   56.0487   20.8607 O   0  0  0  0  0  0  0  0  0  0  0  0
   -0.3373   52.0944   22.1068 O   0  0  0  0  0  0  0  0  0  0  0  0
    1.1376   53.5149   24.0282 N   0  0  0  0  0  0  0  0  0  0  0  0
    2.9243   55.5249   23.0743 C   0  0  0  0  0  0  0  0  0  0  0  0
    6.9050   61.9184   20.5246 C   0  0  0  0  0  0  0  0  0  0  0  0
    5.4813   59.9754   21.4382 C   0  0  0  0  0  0  0  0  0  0  0  0
  1 15  2  0
  1 26  1  0
  1 27  1  0
  2 17  1  0
  2 20  1  0
  3 20  1  0
  3 26  1  0
  4  9  1  0
  4 17  1  0
  4 22  2  0
  5  8  1  0
  5 12  2  0
  5 24  1  0
  6 10  1  0
  6 13  1  0
  7 14  1  0
  7 19  1  0
  7 25  2  0
  8 23  1  0
  9 25  1  0
 10 21  1  0
 10 23  1  0
 11 16  1  0
 11 17  1  0
 11 27  1  0
 12 25  1  0
 14 24  2  0
 18 26  1  0
 20 27  1  0
M  END
$$$$

     RDKit          3D

 27 28  0  0  0  0  0  0  0  0999 V2000
    5.0560   58.1204   21.2978 C   0  0  0  0  0  0  0  0  0  0  0  0
    4.2876   56.8693   21.3536 C   0  0  0  0  0  0  0  0  0  0  0  0
    2.9527   55.4748   22.8240 C   0  0  0  0  0  0  0  0  0  0  0  0
    1.1294   52.3347   21.8552 C   0  0  0  0  0  0  0  0  0  0  0  0
    1.5984   50.1134   22.6321 C   0  0  0  0  0  0  0  0  0  0  0  0
    1.1113   53.4918   23.7700 C   0  0  0  0  0  0  0  0  0  0  0  0
    2.4349   55.4519   24.1295 C   0  0  0  0  0  0  0  0  0  0  0  0
    6.5534   59.6543   20.3139 C   0  0  0  0  0  0  0  0  0  0  0  0
    1.5785   53.4876   22.3845 C   0  0  0  0  0  0  0  0  0  0  0  0
    6.9320   62.2681   20.7380 C   0  0  0  0  0  0  0  0  0  0  0  0
   -0.1437   51.8484   22.0120 O   0  0  0  0  0  0  0  0  0  0  0  0
    1.2106   53.3220   20.4767 C   0  0  0  0  0  0  0  0  0  0  0  0
    4.3422   55.9996   20.8380 O   0  0  0  0  0  0  0  0  0  0  0  0
    3.0073   51.0864   20.3944 C   0  0  0  0  0  0  0  0  0  0  0  0
    3.9997   56.4604   22.5983 N   0  0  0  0  0  0  0  0  0  0  0  0
    4.3369   59.6492   24.2865 C   0  0  0  0  0  0  0  0  0  0  0  0
    6.9136   63.6515   20.6967 O   0  0  0  0  0  0  0  0  0  0  0  0
    7.7016   59.8133   19.3407 C   0  0  0  0  0  0  0  0  0  0  0  0
    1.5456   54.4973   24.6297 C   0  0  0  0  0  0  0  0  0  0  0  0
    2.0313   51.3154   21.6283 N   0  0  0  0  0  0  0  0  0  0  0  0
    5.9823   58.3078   20.3511 N   0  0  0  0  0  0  0  0  0  0  0  0
    2.9049   56.3326   24.9718 O   0  0  0  0  0  0  0  0  0  0  0  0
    5.8287   61.7568   21.7838 C   0  0  0  0  0  0  0  0  0  0  0  0
    2.4658   54.5022   22.1095 C   0  0  0  0  0  0  0  0  0  0  0  0
    4.0007   60.2030   23.1148 C   0  0  0  0  0  0  0  0  0  0  0  0
    4.8835   59.5498   21.9908 C   0  0  0  0  0  0  0  0  0  0  0  0
    5.4544   60.6724   21.6607 C   0  0  0  0  0  0  0  0  0  0  0  0
  1  2  1  0
  1 21  1  0
  1 26  1  0
  2 13  2  0
  2 15  1  0
  3  7  1  0
  3 15  1  0
  3 24  2  0
  4  9  1  0
  4 11  1  0
  4 12  1  0
  4 20  1  0
  5 20  1  0
  6  9  2  0
  6 19  1  0
  7 19  2  0
  7 22  1  0
  8 18  1  0
  8 21  1  0
  8 27  1  0
  9 24  1  0
 10 17  1  0
 10 23  1  0
 14 20  1  0
 16 25  1  0
 23 27  1  0
 25 26  1  0
 26 27  1  0
M  END
$$$$

     RDKit          3D

 26 26  0  0  0  0  0  0  0  0999 V2000
    4.4443   56.9532   21.6755 C   0  0  0  0  0  0  0  0  0  0  0  0
    5.2325   60.0831   21.6880 C   0  0  0  0  0  0  0  0  0  0  0  0
    5.2520   62.3066   22.3450 O   0  0  0  0  0  0  0  0  0  0  0  0
    4.3573   55.9737   20.7601 O   0  0  0  0  0  0  0  0  0  0  0  0
    5.2438   58.4514   21.4354 C   0  0  0  0  0  0  0  0  0  0  0  0
    3.0756   55.4346   22.9678 C   0  0  0  0  0  0  0  0  0  0  0  0
    0.8092   52.4875   21.6155 S   0  0  0  0  0  0  0  0  0  0  0  0
    1.0498   53.3708   24.0044 C   0  0  0  0  0  0  0  0  0  0  0  0
    7.2117   59.5144   19.7746 C   0  0  0  0  0  0  0  0  0  0  0  0
    2.4890   55.3068   24.2664 C   0  0  0  0  0  0  0  0  0  0  0  0
    1.4763   50.2612   22.3055 C   0  0  0  0  0  0  0  0  0  0  0  0
    2.9739   51.9552   20.7281 C   0  0  0  0  0  0  0  0  0  0  0  0
    6.6442   62.2039   20.8591 C   0  0  0  0  0  0  0  0  0  0  0  0
    1.5074   53.4521   22.6114 C   0  0  0  0  0  0  0  0  0  0  0  0
    3.9632   59.9783   22.7606 C   0  0  0  0  0  0  0  0  0  0  0  0
    2.9705   56.2837   25.0880 N   0  0  0  0  0  0  0  0  0  0  0  0
    2.2245   50.3502   23.5775 C   0  0  0  0  0  0  0  0  0  0  0  0
   -0.4753   52.1057   21.8150 O   0  0  0  0  0  0  0  0  0  0  0  0
    4.4263   59.9181   24.2482 C   0  0  0  0  0  0  0  0  0  0  0  0
    3.9368   56.5370   22.7861 N   0  0  0  0  0  0  0  0  0  0  0  0
    2.9129   50.4870   20.0395 C   0  0  0  0  0  0  0  0  0  0  0  0
    2.5463   54.4521   22.2744 C   0  0  0  0  0  0  0  0  0  0  0  0
    0.7207   53.1501   20.2251 O   0  0  0  0  0  0  0  0  0  0  0  0
    1.5518   54.3997   25.0022 C   0  0  0  0  0  0  0  0  0  0  0  0
    5.7190   61.5434   21.6434 C   0  0  0  0  0  0  0  0  0  0  0  0
    6.8916   61.3169   20.4934 C   0  0  0  0  0  0  0  0  0  0  0  0
  1  4  2  0
  1  5  1  0
  1 20  1  0
  2  5  2  3
  2 15  1  0
  2 25  1  0
  3 25  2  0
  6 10  2  0
  6 20  1  0
  6 22  1  0
  7 11  1  0
  7 12  1  0
  7 14  1  0
  7 18  1  0
  7 23  1  0
  8 14  1  0
  8 24  2  0
  9 26  1  0
 10 16  1  0
 10 24  1  0
 11 17  1  0
 12 21  1  0
 13 25  1  0
 13 26  1  0
 14 22  2  0
 15 19  1  0
M  END
$$$$

     RDKit          3D

 29 30  0  0  0  0  0  0  0  0999 V2000
    4.5579   56.7183   21.6447 C   0  0  0  0  0  0  0  0  0  0  0  0
    6.0010   58.1310   20.4372 N   0  0  0  0  0  0  0  0  0  0  0  0
    0.9209   52.5941   21.5277 S   0  0  0  0  0  0  0  0  0  0  0  0
    3.0241   55.5532   22.9831 C   0  0  0  0  0  0  0  0  0  0  0  0
    3.8527   56.6925   22.7749 N   0  0  0  0  0  0  0  0  0  0  0  0
    4.7838   59.3049   22.1503 C   0  0  0  0  0  0  0  0  0  0  0  0
    5.3023   61.9307   22.2932 O   0  0  0  0  0  0  0  0  0  0  0  0
    1.5000   54.6045   24.7457 C   0  0  0  0  0  0  0  0  0  0  0  0
    1.6180   53.5259   22.5111 C   0  0  0  0  0  0  0  0  0  0  0  0
    4.3842   59.7770   24.3306 C   0  0  0  0  0  0  0  0  0  0  0  0
    6.5166   59.4772   20.3638 C   0  0  0  0  0  0  0  0  0  0  0  0
    6.8372   62.0609   20.6983 C   0  0  0  0  0  0  0  0  0  0  0  0
    2.9060   51.5911   20.5200 C   0  0  0  0  0  0  0  0  0  0  0  0
    2.1531   50.2540   23.1111 C   0  0  0  0  0  0  0  0  0  0  0  0
    5.5491   60.3496   21.5732 C   0  0  0  0  0  0  0  0  0  0  0  0
    2.7379   56.4569   25.4474 F   0  0  0  0  0  0  0  0  0  0  0  0
    7.6190   59.7689   19.2778 C   0  0  0  0  0  0  0  0  0  0  0  0
    2.4896   54.5590   22.0493 C   0  0  0  0  0  0  0  0  0  0  0  0
    2.9991   50.3427   19.7163 C   0  0  0  0  0  0  0  0  0  0  0  0
   -0.2883   52.3991   22.0208 O   0  0  0  0  0  0  0  0  0  0  0  0
    5.0396   57.9250   21.4674 C   0  0  0  0  0  0  0  0  0  0  0  0
    1.0781   53.6579   23.8291 C   0  0  0  0  0  0  0  0  0  0  0  0
    2.4308   55.5366   24.3607 C   0  0  0  0  0  0  0  0  0  0  0  0
    0.6782   53.0176   20.2548 O   0  0  0  0  0  0  0  0  0  0  0  0
    4.5403   55.8592   20.8805 O   0  0  0  0  0  0  0  0  0  0  0  0
    3.8678   59.6916   23.1522 C   0  0  0  0  0  0  0  0  0  0  0  0
    1.2409   50.3862   22.0511 C   0  0  0  0  0  0  0  0  0  0  0  0
    6.9026   63.3451   20.7290 O   0  0  0  0  0  0  0  0  0  0  0  0
    6.2449   61.3398   21.1645 C   0  0  0  0  0  0  0  0  0  0  0  0
  1  5  1  0
  1 21  1  0
  1 25  2  0
  2 11  1  0
  2 21  1  0
  3  9  1  0
  3 13  1  0
  3 20  1  0
  3 24  1  0
  3 27  1  0
  4  5  1  0
  4 18  1  0
  4 23  2  0
  6 15  1  0
  6 21  1  0
  6 26  1  0
  7 29  1  0
  8 22  2  0
  8 23  1  0
  9 18  2  0
  9 22  1  0
 10 26  1  0
 11 15  1  0
 11 17  1  0
 12 28  1  0
 12 29  1  0
 13 19  1  0
 14 27  1  0
 15 29  1  0
 16 23  1  0
M  END
$$$$

     RDKit          3D

 26 26  0  0  0  0  0  0  0  0999 V2000
    2.5333   55.5778   24.0972 C   0  0  0  0  0  0  0  0  0  0  0  0
    5.0692   59.8760   21.9494 C   0  0  0  0  0  0  0  0  0  0  0  0
    1.5410   53.6498   22.4063 C   0  0  0  0  0  0  0  0  0  0  0  0
   -0.5420   51.8578   22.0507 O   0  0  0  0  0  0  0  0  0  0  0  0
    6.9432   63.6360   20.6366 O   0  0  0  0  0  0  0  0  0  0  0  0
    2.3684   50.2410   23.4819 C   0  0  0  0  0  0  0  0  0  0  0  0
    0.9283   53.5367   23.7068 N   0  0  0  0  0  0  0  0  0  0  0  0
    1.2845   53.0668   20.9243 C   0  0  0  0  0  0  0  0  0  0  0  0
    5.3053   62.1601   22.3319 O   0  0  0  0  0  0  0  0  0  0  0  0
    3.0530   51.4427   20.5407 C   0  0  0  0  0  0  0  0  0  0  0  0
    2.4502   54.5422   22.0889 C   0  0  0  0  0  0  0  0  0  0  0  0
    1.9090   51.3442   21.3734 N   0  0  0  0  0  0  0  0  0  0  0  0
    1.2569   50.4014   22.5019 C   0  0  0  0  0  0  0  0  0  0  0  0
    6.9539   62.2281   20.6284 C   0  0  0  0  0  0  0  0  0  0  0  0
    1.5240   54.4083   24.3716 C   0  0  0  0  0  0  0  0  0  0  0  0
    7.4187   59.6675   19.4688 C   0  0  0  0  0  0  0  0  0  0  0  0
    5.0383   58.5741   21.6642 C   0  0  0  0  0  0  0  0  0  0  0  0
    3.1216   55.5913   22.8876 C   0  0  0  0  0  0  0  0  0  0  0  0
    4.4101   56.2075   21.0622 O   0  0  0  0  0  0  0  0  0  0  0  0
    3.7660   59.7145   22.9515 C   0  0  0  0  0  0  0  0  0  0  0  0
    5.7209   61.2184   21.5813 C   0  0  0  0  0  0  0  0  0  0  0  0
    2.9075   56.2843   25.2006 O   0  0  0  0  0  0  0  0  0  0  0  0
    4.5601   59.5330   24.2342 C   0  0  0  0  0  0  0  0  0  0  0  0
    3.2073   50.1986   19.7715 C   0  0  0  0  0  0  0  0  0  0  0  0
    6.5493   59.5666   20.3420 C   0  0  0  0  0  0  0  0  0  0  0  0
    4.4461   57.1924   22.0670 C   0  0  0  0  0  0  0  0  0  0  0  0
  1 15  2  0
  1 18  1  0
  1 22  1  0
  2 17  1  0
  2 20  1  0
  2 21  1  0
  2 25  1  0
  3  7  2  0
  3  8  1  0
  3 11  1  0
  4 13  1  0
  5 14  1  0
  6 13  1  0
  7 15  1  0
  8 12  1  0
  9 21  2  0
 10 12  1  0
 10 24  1  0
 11 18  2  0
 12 13  1  0
 14 21  1  0
 16 25  3  0
 17 26  1  0
 18 26  1  0
 19 26  1  0
 20 23  1  0
M  END
$$$$

     RDKit          3D

 28 29  0  0  0  0  0  0  0  0999 V2000
    4.8967   57.9325   21.3952 C   0  0  0  0  0  0  0  0  0  0  0  0
    3.7566   56.5913   22.7131 N   0  0  0  0  0  0  0  0  0  0  0  0
    6.4737   59.3072   20.3689 C   0  0  0  0  0  0  0  0  0  0  0  0
    4.2923   55.5635   20.8067 O   0  0  0  0  0  0  0  0  0  0  0  0
    5.9083   58.1170   20.4375 N   0  0  0  0  0  0  0  0  0  0  0  0
   -0.5203   51.9592   21.9073 O   0  0  0  0  0  0  0  0  0  0  0  0
    2.9094   51.8669   20.5842 C   0  0  0  0  0  0  0  0  0  0  0  0
    4.1659   60.0070   24.2420 N   0  0  0  0  0  0  0  0  0  0  0  0
    1.1994   52.0932   21.4123 S   0  0  0  0  0  0  0  0  0  0  0  0
    5.5802   61.2934   21.6859 C   0  0  0  0  0  0  0  0  0  0  0  0
    1.4966   54.4883   24.8729 C   0  0  0  0  0  0  0  0  0  0  0  0
    6.7088   62.0397   20.8213 C   0  0  0  0  0  0  0  0  0  0  0  0
    2.3052   55.4975   24.4348 C   0  0  0  0  0  0  0  0  0  0  0  0
    4.8616   59.4386   21.9163 C   0  0  0  0  0  0  0  0  0  0  0  0
    1.5089   53.5270   22.6627 C   0  0  0  0  0  0  0  0  0  0  0  0
    7.5384   59.5538   19.3888 C   0  0  0  0  0  0  0  0  0  0  0  0
    4.9938   62.1340   22.3920 F   0  0  0  0  0  0  0  0  0  0  0  0
    2.6734   56.4975   25.2636 O   0  0  0  0  0  0  0  0  0  0  0  0
    0.7153   52.8930   20.2876 O   0  0  0  0  0  0  0  0  0  0  0  0
    3.1535   50.5466   19.6742 C   0  0  0  0  0  0  0  0  0  0  0  0
    1.2842   50.4772   22.2733 C   0  0  0  0  0  0  0  0  0  0  0  0
    1.0094   53.4419   23.9765 C   0  0  0  0  0  0  0  0  0  0  0  0
    2.1353   50.6552   23.5069 C   0  0  0  0  0  0  0  0  0  0  0  0
    2.9674   55.5789   23.0141 C   0  0  0  0  0  0  0  0  0  0  0  0
    2.4673   54.4219   22.2243 C   0  0  0  0  0  0  0  0  0  0  0  0
    5.8901   60.3053   21.0332 C   0  0  0  0  0  0  0  0  0  0  0  0
    4.2218   56.5705   21.5633 C   0  0  0  0  0  0  0  0  0  0  0  0
    3.9157   59.6846   22.9528 C   0  0  0  0  0  0  0  0  0  0  0  0
  1  5  1  0
  1 14  1  0
  1 27  1  0
  2 24  1  0
  2 27  1  0
  3  5  1  0
  3 16  1  0
  3 26  1  0
  4 27  2  0
  6  9  1  0
  7  9  1  0
  7 20  1  0
  8 28  1  0
  9 15  1  0
  9 19  1  0
  9 21  1  0
 10 12  1  0
 10 17  1  0
 10 26  1  0
 11 13  2  0
 11 22  1  0
 13 18  1  0
 13 24  1  0
 14 26  1  0
 14 28  1  0
 15 22  2  0
 15 25  1  0
 21 23  1  0
 24 25  2  0
M  END
$$$$

     RDKit          3D

 28 30  0  0  0  0  0  0  0  0999 V2000
    4.4111   56.8893   21.6285 C   0  0  0  0  0  0  0  0  0  0  0  0
    4.8270   59.3522   21.9065 C   0  0  0  0  0  0  0  0  0  0  0  0
    1.4903   54.5859   24.7278 C   0  0  0  0  0  0  0  0  0  0  0  0
    2.5703   50.2975   23.3908 C   0  0  0  0  0  0  0  0  0  0  0  0
    7.6330   59.7232   19.4986 C   0  0  0  0  0  0  0  0  0  0  0  0
    2.3310   55.6461   24.4498 C   0  0  0  0  0  0  0  0  0  0  0  0
    1.7342   50.3278   22.1226 C   0  0  0  0  0  0  0  0  0  0  0  0
    5.6541   60.1640   21.2851 C   0  0  0  0  0  0  0  0  0  0  0  0
    2.5250   54.5866   22.2822 C   0  0  0  0  0  0  0  0  0  0  0  0
    6.5903   62.1750   20.8727 C   0  0  0  0  0  0  0  0  0  0  0  0
    6.4505   59.4282   20.3423 C   0  0  0  0  0  0  0  0  0  0  0  0
    2.9208   55.6915   23.0775 C   0  0  0  0  0  0  0  0  0  0  0  0
    3.2656   50.2533   19.9585 C   0  0  0  0  0  0  0  0  0  0  0  0
    6.7880   63.5461   20.6017 O   0  0  0  0  0  0  0  0  0  0  0  0
    4.0444   59.2173   24.1984 C   0  0  0  0  0  0  0  0  0  0  0  0
    3.0855   51.4397   20.8741 C   0  0  0  0  0  0  0  0  0  0  0  0
    4.3030   55.9381   20.8288 O   0  0  0  0  0  0  0  0  0  0  0  0
    7.3586   60.9533   19.9602 C   0  0  0  0  0  0  0  0  0  0  0  0
    3.9295   59.4508   22.9190 C   0  0  0  0  0  0  0  0  0  0  0  0
   -0.2326   52.2006   21.9652 O   0  0  0  0  0  0  0  0  0  0  0  0
    1.0267   53.6050   23.8537 C   0  0  0  0  0  0  0  0  0  0  0  0
    2.6854   56.5102   25.3955 O   0  0  0  0  0  0  0  0  0  0  0  0
    3.7077   56.7026   22.7951 N   0  0  0  0  0  0  0  0  0  0  0  0
    0.9198   53.0070   20.6720 O   0  0  0  0  0  0  0  0  0  0  0  0
    6.0626   58.1951   20.4941 N   0  0  0  0  0  0  0  0  0  0  0  0
    1.5127   53.6242   22.5494 C   0  0  0  0  0  0  0  0  0  0  0  0
    5.0844   58.0392   21.4832 C   0  0  0  0  0  0  0  0  0  0  0  0
    5.8262   61.7080   21.4204 C   0  0  0  0  0  0  0  0  0  0  0  0
  1 17  2  0
  1 23  1  0
  1 27  1  0
  2  8  1  0
  2 19  1  0
  2 27  1  0
  3  6  2  0
  3 21  1  0
  4  7  1  0
  5 11  1  0
  5 18  1  0
  6 12  1  0
  6 22  1  0
  7 16  1  0
  8 11  1  0
  8 28  1  0
  9 12  2  0
  9 26  1  0
 10 14  1  0
 10 18  1  0
 10 28  1  0
 11 25  1  0
 12 23  1  0
 13 16  1  0
 15 19  2  0
 16 24  1  0
 20 24  1  0
 20 26  1  0
 21 26  2  0
 25 27  1  0
M  END
$$$$

     RDKit          3D

 26 27  0  0  0  0  0  0  0  0999 V2000
    4.2316   55.8192   20.6525 O   0  0  0  0  0  0  0  0  0  0  0  0
    1.6668   54.4335   25.0229 C   0  0  0  0  0  0  0  0  0  0  0  0
    5.3081   60.0328   21.6394 C   0  0  0  0  0  0  0  0  0  0  0  0
    1.6967   53.4215   22.6862 C   0  0  0  0  0  0  0  0  0  0  0  0
    3.8710   56.4816   22.7766 N   0  0  0  0  0  0  0  0  0  0  0  0
   -0.2139   51.9411   21.9127 O   0  0  0  0  0  0  0  0  0  0  0  0
    5.2854   62.2694   22.1787 O   0  0  0  0  0  0  0  0  0  0  0  0
    5.8126   58.2054   20.6571 C   0  0  0  0  0  0  0  0  0  0  0  0
    1.5708   52.8289   21.2592 C   0  0  0  0  0  0  0  0  0  0  0  0
    1.6674   50.1316   22.1325 C   0  0  0  0  0  0  0  0  0  0  0  0
    2.5987   55.5221   24.5482 C   0  0  0  0  0  0  0  0  0  0  0  0
    6.5428   59.5004   20.3830 C   0  0  0  0  0  0  0  0  0  0  0  0
    3.1369   50.2236   19.8014 C   0  0  0  0  0  0  0  0  0  0  0  0
    4.2220   59.4165   24.1245 C   0  0  0  0  0  0  0  0  0  0  0  0
    2.5222   54.5282   22.3532 C   0  0  0  0  0  0  0  0  0  0  0  0
    7.6503   59.6324   19.3182 C   0  0  0  0  0  0  0  0  0  0  0  0
    2.8361   51.3157   20.8177 C   0  0  0  0  0  0  0  0  0  0  0  0
    2.3911   50.2264   23.2349 N   0  0  0  0  0  0  0  0  0  0  0  0
    1.2640   53.4981   24.0307 C   0  0  0  0  0  0  0  0  0  0  0  0
    3.0063   56.5500   25.2854 O   0  0  0  0  0  0  0  0  0  0  0  0
    2.9846   55.5226   23.1814 C   0  0  0  0  0  0  0  0  0  0  0  0
    4.2550   56.6114   21.4264 C   0  0  0  0  0  0  0  0  0  0  0  0
    6.8601   62.1391   20.7650 C   0  0  0  0  0  0  0  0  0  0  0  0
    5.8375   61.1243   21.4806 C   0  0  0  0  0  0  0  0  0  0  0  0
    4.9138   57.9710   21.4468 C   0  0  0  0  0  0  0  0  0  0  0  0
    4.2846   59.5796   22.5476 C   0  0  0  0  0  0  0  0  0  0  0  0
  1 22  2  0
  2 11  2  0
  2 19  1  0
  3 12  1  0
  3 24  1  0
  3 26  1  0
  4  9  1  0
  4 15  1  0
  4 19  2  0
  5 21  1  0
  5 22  1  0
  6  9  1  0
  7 24  1  0
  8 12  1  0
  8 25  1  0
  9 17  1  0
 10 17  1  0
 10 18  1  0
 11 20  1  0
 11 21  1  0
 12 16  1  0
 13 17  1  0
 14 26  1  0
 15 21  2  0
 22 25  1  0
 23 24  1  0
 25 26  1  0
M  END
$$$$

     RDKit          3D

 26 27  0  0  0  0  0  0  0  0999 V2000
    4.2708   56.8929   21.8077 C   0  0  0  0  0  0  0  0  0  0  0  0
    4.7878   59.3580   22.0429 C   0  0  0  0  0  0  0  0  0  0  0  0
    2.5971   55.6203   24.1507 C   0  0  0  0  0  0  0  0  0  0  0  0
    5.1617   62.3168   22.3760 O   0  0  0  0  0  0  0  0  0  0  0  0
    3.1480   55.7592   22.8761 C   0  0  0  0  0  0  0  0  0  0  0  0
    6.5063   59.3744   20.3697 C   0  0  0  0  0  0  0  0  0  0  0  0
    6.9075   63.5679   20.7842 O   0  0  0  0  0  0  0  0  0  0  0  0
    1.6850   53.5595   22.2171 C   0  0  0  0  0  0  0  0  0  0  0  0
    5.8685   58.1395   20.5372 N   0  0  0  0  0  0  0  0  0  0  0  0
    2.9017   51.6039   20.6240 C   0  0  0  0  0  0  0  0  0  0  0  0
    1.7422   54.4931   24.4883 C   0  0  0  0  0  0  0  0  0  0  0  0
    3.9273   59.6354   23.0200 C   0  0  0  0  0  0  0  0  0  0  0  0
    2.8330   56.4121   25.1974 O   0  0  0  0  0  0  0  0  0  0  0  0
    2.2567   50.2024   23.0825 C   0  0  0  0  0  0  0  0  0  0  0  0
    5.7218   60.2648   21.4265 C   0  0  0  0  0  0  0  0  0  0  0  0
    4.9342   58.0655   21.5770 C   0  0  0  0  0  0  0  0  0  0  0  0
    4.2663   55.9186   20.8591 O   0  0  0  0  0  0  0  0  0  0  0  0
    4.4652   59.5896   24.5155 C   0  0  0  0  0  0  0  0  0  0  0  0
    2.7102   54.6777   22.0402 C   0  0  0  0  0  0  0  0  0  0  0  0
    7.7413   59.6978   19.4258 C   0  0  0  0  0  0  0  0  0  0  0  0
    3.1956   50.3719   19.6737 C   0  0  0  0  0  0  0  0  0  0  0  0
   -0.1717   52.2722   21.9209 O   0  0  0  0  0  0  0  0  0  0  0  0
    3.8683   56.8133   22.8937 N   0  0  0  0  0  0  0  0  0  0  0  0
    6.8334   62.4315   20.8679 C   0  0  0  0  0  0  0  0  0  0  0  0
    1.3252   53.6772   23.6584 C   0  0  0  0  0  0  0  0  0  0  0  0
    5.8339   61.7223   21.6419 C   0  0  0  0  0  0  0  0  0  0  0  0
  1 16  1  0
  1 17  2  0
  1 23  1  0
  2 12  1  0
  2 15  1  0
  2 16  1  0
  3  5  2  0
  3 11  1  0
  3 13  1  0
  4 26  2  0
  5 19  1  0
  5 23  1  0
  6  9  1  0
  6 15  1  0
  6 20  1  0
  7 24  2  0
  8 19  2  0
  8 22  1  0
  8 25  1  0
  9 16  1  0
 10 14  1  0
 10 21  1  0
 11 25  2  0
 12 18  1  0
 14 22  1  0
 15 26  1  0
 24 26  1  0
M  END
$$$$

     RDKit          3D

 29 31  0  0  0  0  0  0  0  0999 V2000
    2.8440   55.4663   23.1363 C   0  0  0  0  0  0  0  0  0  0  0  0
    5.0387   59.4950   21.7937 C   0  0  0  0  0  0  0  0  0  0  0  0
    1.6642   50.2675   22.1683 C   0  0  0  0  0  0  0  0  0  0  0  0
    5.9043   60.9506   21.3870 C   0  0  0  0  0  0  0  0  0  0  0  0
    6.8811   61.9945   20.7027 C   0  0  0  0  0  0  0  0  0  0  0  0
    1.5992   54.5613   24.7894 C   0  0  0  0  0  0  0  0  0  0  0  0
    7.7960   59.7928   19.2246 C   0  0  0  0  0  0  0  0  0  0  0  0
    6.8572   63.3851   20.7365 O   0  0  0  0  0  0  0  0  0  0  0  0
    4.4982   59.7480   24.1903 C   0  0  0  0  0  0  0  0  0  0  0  0
    5.2979   58.2508   21.1837 C   0  0  0  0  0  0  0  0  0  0  0  0
    2.0099   51.3713   21.2872 N   0  0  0  0  0  0  0  0  0  0  0  0
    3.7928   56.4763   22.7195 N   0  0  0  0  0  0  0  0  0  0  0  0
    1.3535   53.4622   22.9031 C   0  0  0  0  0  0  0  0  0  0  0  0
    1.0083   52.5351   21.4763 S   0  0  0  0  0  0  0  0  0  0  0  0
   -0.3697   52.0500   21.8646 O   0  0  0  0  0  0  0  0  0  0  0  0
    2.2553   54.4036   22.3147 C   0  0  0  0  0  0  0  0  0  0  0  0
    3.9084   59.6852   22.7910 C   0  0  0  0  0  0  0  0  0  0  0  0
    6.7494   59.8840   20.3393 C   0  0  0  0  0  0  0  0  0  0  0  0
    3.1200   50.2962   19.6052 C   0  0  0  0  0  0  0  0  0  0  0  0
    0.8246   53.2493   20.1469 O   0  0  0  0  0  0  0  0  0  0  0  0
    5.1941   62.0011   22.1692 O   0  0  0  0  0  0  0  0  0  0  0  0
    2.4326   50.3292   23.3193 C   0  0  0  0  0  0  0  0  0  0  0  0
    6.1008   58.4611   20.3989 O   0  0  0  0  0  0  0  0  0  0  0  0
    1.0460   53.5178   23.9138 C   0  0  0  0  0  0  0  0  0  0  0  0
    2.9919   51.2486   20.4238 C   0  0  0  0  0  0  0  0  0  0  0  0
    3.4834   54.9903   21.0027 C   0  0  0  0  0  0  0  0  0  0  0  0
    2.6063   55.9052   24.8792 N   0  0  0  0  0  0  0  0  0  0  0  0
    4.4019   56.9259   21.6128 C   0  0  0  0  0  0  0  0  0  0  0  0
    4.3039   55.9447   20.8426 C   0  0  0  0  0  0  0  0  0  0  0  0
  1 12  1  0
  1 16  1  0
  1 27  2  0
  2  4  1  0
  2 10  1  0
  2 17  1  0
  3 11  1  0
  3 22  1  0
  4  5  1  0
  4 18  1  0
  4 21  1  0
  5  8  1  0
  6 24  2  0
  6 27  1  0
  7 18  1  0
  9 17  1  0
 10 23  1  0
 10 28  1  0
 11 14  1  0
 11 25  1  0
 12 28  2  0
 13 14  1  0
 13 16  2  0
 13 24  1  0
 14 15  1  0
 14 20  1  0
 16 26  1  0
 18 23  1  0
 19 25  1  0
 26 29  2  0
 28 29  1  0
M  END
$$$$

     RDKit          3D

 27 28  0  0  0  0  0  0  0  0999 V2000
    4.3302   56.7997   21.7033 C   0  0  0  0  0  0  0  0  0  0  0  0
    5.2250   62.1259   22.3433 O   0  0  0  0  0  0  0  0  0  0  0  0
    2.4477   55.4914   24.3218 C   0  0  0  0  0  0  0  0  0  0  0  0
    1.5677   53.5080   22.5397 C   0  0  0  0  0  0  0  0  0  0  0  0
    1.7946   51.2971   21.6552 N   0  0  0  0  0  0  0  0  0  0  0  0
    3.7443   56.6097   22.8680 N   0  0  0  0  0  0  0  0  0  0  0  0
    1.5083   54.4966   24.7782 C   0  0  0  0  0  0  0  0  0  0  0  0
    5.9768   58.1674   20.5453 N   0  0  0  0  0  0  0  0  0  0  0  0
    6.8720   63.4299   20.8362 O   0  0  0  0  0  0  0  0  0  0  0  0
    3.6772   59.4514   22.9544 C   0  0  0  0  0  0  0  0  0  0  0  0
    4.9773   58.0905   21.5564 C   0  0  0  0  0  0  0  0  0  0  0  0
    5.7515   60.3168   21.3899 C   0  0  0  0  0  0  0  0  0  0  0  0
    2.2438   50.2403   23.2932 C   0  0  0  0  0  0  0  0  0  0  0  0
    2.9135   55.5733   22.9454 C   0  0  0  0  0  0  0  0  0  0  0  0
    6.4966   59.4337   20.4171 C   0  0  0  0  0  0  0  0  0  0  0  0
    1.1557   53.3930   23.9458 C   0  0  0  0  0  0  0  0  0  0  0  0
    4.7853   59.4505   22.0498 C   0  0  0  0  0  0  0  0  0  0  0  0
    7.7181   59.6799   19.4495 C   0  0  0  0  0  0  0  0  0  0  0  0
    0.6848   53.1226   20.6612 O   0  0  0  0  0  0  0  0  0  0  0  0
    6.1600   61.7879   21.4364 C   0  0  0  0  0  0  0  0  0  0  0  0
    4.1764   55.8814   20.7875 O   0  0  0  0  0  0  0  0  0  0  0  0
    3.1857   50.2416   19.8012 C   0  0  0  0  0  0  0  0  0  0  0  0
    2.9072   56.3311   25.1916 O   0  0  0  0  0  0  0  0  0  0  0  0
    2.4881   54.5422   22.1029 C   0  0  0  0  0  0  0  0  0  0  0  0
    2.9896   51.4873   20.7288 C   0  0  0  0  0  0  0  0  0  0  0  0
    4.2154   59.4038   23.9979 C   0  0  0  0  0  0  0  0  0  0  0  0
    1.5137   50.2487   22.3611 C   0  0  0  0  0  0  0  0  0  0  0  0
  1  6  1  0
  1 11  1  0
  1 21  2  0
  2 20  2  0
  3  7  2  0
  3 14  1  0
  3 23  1  0
  4 16  2  0
  4 19  1  0
  4 24  1  0
  5 25  1  0
  5 27  1  0
  6 14  1  0
  7 16  1  0
  8 11  1  0
  8 15  1  0
  9 20  1  0
 10 17  1  0
 10 26  1  0
 11 17  1  0
 12 15  1  0
 12 17  1  0
 12 20  1  0
 13 27  1  0
 14 24  2  0
 15 18  1  0
 22 25  1  0
 24 25  1  0
M  END
$$$$

     RDKit          3D

 27 28  0  0  0  0  0  0  0  0999 V2000
    1.2368   53.6208   23.8255 C   0  0  0  0  0  0  0  0  0  0  0  0
    3.8591   56.6181   22.8021 N   0  0  0  0  0  0  0  0  0  0  0  0
    2.5171   55.4546   24.3290 C   0  0  0  0  0  0  0  0  0  0  0  0
    3.0508   51.4551   20.6851 C   0  0  0  0  0  0  0  0  0  0  0  0
    0.9609   52.4925   21.5085 S   0  0  0  0  0  0  0  0  0  0  0  0
    4.4563   56.0923   20.7672 O   0  0  0  0  0  0  0  0  0  0  0  0
    4.5765   59.5941   24.3956 N   0  0  0  0  0  0  0  0  0  0  0  0
    6.7232   59.5637   20.0469 C   0  0  0  0  0  0  0  0  0  0  0  0
    2.4317   50.3409   23.1519 C   0  0  0  0  0  0  0  0  0  0  0  0
    5.0849   59.6308   21.8333 C   0  0  0  0  0  0  0  0  0  0  0  0
    1.6143   53.5786   22.5136 C   0  0  0  0  0  0  0  0  0  0  0  0
    6.9879   62.1128   20.4126 C   0  0  0  0  0  0  0  0  0  0  0  0
    3.9252   59.6076   22.9828 C   0  0  0  0  0  0  0  0  0  0  0  0
    7.7132   60.0010   19.1027 C   0  0  0  0  0  0  0  0  0  0  0  0
    2.5855   54.5517   22.1619 C   0  0  0  0  0  0  0  0  0  0  0  0
    1.1704   50.3454   22.0957 C   0  0  0  0  0  0  0  0  0  0  0  0
    2.8514   56.3550   25.2303 O   0  0  0  0  0  0  0  0  0  0  0  0
   -0.3717   52.0175   21.9778 O   0  0  0  0  0  0  0  0  0  0  0  0
    5.1343   58.2478   21.4274 C   0  0  0  0  0  0  0  0  0  0  0  0
    1.7428   54.5253   24.6978 C   0  0  0  0  0  0  0  0  0  0  0  0
    0.7938   53.0786   20.4067 O   0  0  0  0  0  0  0  0  0  0  0  0
    3.2275   50.3023   19.9767 C   0  0  0  0  0  0  0  0  0  0  0  0
    3.0158   55.5687   23.0299 C   0  0  0  0  0  0  0  0  0  0  0  0
    6.1865   58.4141   20.3052 N   0  0  0  0  0  0  0  0  0  0  0  0
    5.2958   62.1349   22.1785 O   0  0  0  0  0  0  0  0  0  0  0  0
    5.6328   61.0150   21.4521 C   0  0  0  0  0  0  0  0  0  0  0  0
    4.4780   56.9496   21.6053 C   0  0  0  0  0  0  0  0  0  0  0  0
  1 11  2  0
  1 20  1  0
  2 23  1  0
  2 27  1  0
  3 17  1  0
  3 20  2  0
  3 23  1  0
  4  5  1  0
  4 22  2  0
  5 11  1  0
  5 16  1  0
  5 18  1  0
  5 21  1  0
  6 27  2  0
  7 13  1  0
  8 14  1  0
  8 24  1  0
  8 26  1  0
  9 16  1  0
 10 13  1  0
 10 19  1  0
 10 26  1  0
 11 15  1  0
 12 26  1  0
 15 23  2  0
 19 24  1  0
 19 27  1  0
 25 26  1  0
M  END
$$$$

     RDKit          3D

 29 30  0  0  0  0  0  0  0  0999 V2000
    4.3500   56.7576   21.4766 C   0  0  0  0  0  0  0  0  0  0  0  0
    5.0579   58.1023   21.3508 C   0  0  0  0  0  0  0  0  0  0  0  0
    5.8701   61.3605   21.3120 C   0  0  0  0  0  0  0  0  0  0  0  0
    0.9752   52.5885   21.5706 C   0  0  0  0  0  0  0  0  0  0  0  0
    2.3437   55.3751   24.4564 C   0  0  0  0  0  0  0  0  0  0  0  0
    1.0484   53.6113   23.9850 C   0  0  0  0  0  0  0  0  0  0  0  0
    2.3958   54.4951   22.1252 C   0  0  0  0  0  0  0  0  0  0  0  0
    6.4514   59.5779   20.3831 C   0  0  0  0  0  0  0  0  0  0  0  0
    2.3285   50.2071   23.5000 C   0  0  0  0  0  0  0  0  0  0  0  0
    1.7731   51.4597   21.4690 N   0  0  0  0  0  0  0  0  0  0  0  0
    6.8698   62.1937   20.5488 C   0  0  0  0  0  0  0  0  0  0  0  0
    4.5069   59.5804   22.2704 C   0  0  0  0  0  0  0  0  0  0  0  0
    2.8920   56.3911   25.1832 O   0  0  0  0  0  0  0  0  0  0  0  0
    4.2144   55.8994   20.7252 O   0  0  0  0  0  0  0  0  0  0  0  0
    2.9173   51.4656   20.6258 C   0  0  0  0  0  0  0  0  0  0  0  0
    1.5155   53.5770   22.6127 C   0  0  0  0  0  0  0  0  0  0  0  0
    5.5919   60.4570   21.4516 C   0  0  0  0  0  0  0  0  0  0  0  0
    4.2258   59.5563   23.7862 C   0  0  0  0  0  0  0  0  0  0  0  0
    5.9907   58.3327   20.3998 N   0  0  0  0  0  0  0  0  0  0  0  0
   -0.3029   52.0468   21.9446 O   0  0  0  0  0  0  0  0  0  0  0  0
    7.5518   59.9127   19.4048 C   0  0  0  0  0  0  0  0  0  0  0  0
    0.8967   52.9574   20.3408 O   0  0  0  0  0  0  0  0  0  0  0  0
    3.2172   50.4614   19.5274 C   0  0  0  0  0  0  0  0  0  0  0  0
    7.0338   63.7065   20.5490 O   0  0  0  0  0  0  0  0  0  0  0  0
    1.4680   50.3080   22.2766 C   0  0  0  0  0  0  0  0  0  0  0  0
    2.8526   55.5727   23.0579 C   0  0  0  0  0  0  0  0  0  0  0  0
    1.5243   54.6391   24.8712 C   0  0  0  0  0  0  0  0  0  0  0  0
    3.8746   56.6590   22.6703 N   0  0  0  0  0  0  0  0  0  0  0  0
    5.3969   62.1760   22.0468 O   0  0  0  0  0  0  0  0  0  0  0  0
  1  2  1  0
  1 14  2  0
  1 28  1  0
  2 12  1  0
  2 19  1  0
  3 11  1  0
  3 17  1  0
  3 29  2  0
  4 10  1  0
  4 16  1  0
  4 20  1  0
  4 22  1  0
  5 13  1  0
  5 26  2  0
  5 27  1  0
  6 16  1  0
  6 27  2  0
  7 16  2  0
  7 26  1  0
  8 17  1  0
  8 19  1  0
  8 21  1  0
  9 25  1  0
 10 15  1  0
 10 25  1  0
 11 24  1  0
 12 17  1  0
 12 18  1  0
 15 23  1  0
 26 28  1  0
M  END
$$$$

     RDKit          3D

 29 31  0  0  0  0  0  0  0  0999 V2000
    6.3940   59.0266   20.3323 C   0  0  0  0  0  0  0  0  0  0  0  0
    4.1733   56.9099   22.1317 N   0  0  0  0  0  0  0  0  0  0  0  0
    2.5664   55.6895   24.1256 C   0  0  0  0  0  0  0  0  0  0  0  0
    0.9149   52.4251   21.5580 S   0  0  0  0  0  0  0  0  0  0  0  0
    2.5314   54.6901   22.0692 C   0  0  0  0  0  0  0  0  0  0  0  0
    4.8997   58.0088   21.4797 C   0  0  0  0  0  0  0  0  0  0  0  0
    0.7052   53.0737   20.1219 O   0  0  0  0  0  0  0  0  0  0  0  0
    3.9298   59.8207   23.0756 C   0  0  0  0  0  0  0  0  0  0  0  0
    6.6873   62.0935   20.7159 C   0  0  0  0  0  0  0  0  0  0  0  0
    2.9405   51.5173   20.7184 C   0  0  0  0  0  0  0  0  0  0  0  0
    1.5693   53.6775   22.4665 C   0  0  0  0  0  0  0  0  0  0  0  0
    5.5682   60.0318   21.2270 C   0  0  0  0  0  0  0  0  0  0  0  0
    2.3988   50.2904   23.4961 C   0  0  0  0  0  0  0  0  0  0  0  0
    1.7422   54.6023   24.4288 C   0  0  0  0  0  0  0  0  0  0  0  0
    7.3230   59.6321   19.6040 C   0  0  0  0  0  0  0  0  0  0  0  0
    3.2063   55.9714   22.8003 C   0  0  0  0  0  0  0  0  0  0  0  0
    4.3840   59.4194   24.4886 C   0  0  0  0  0  0  0  0  0  0  0  0
    1.4281   50.3779   22.3217 C   0  0  0  0  0  0  0  0  0  0  0  0
    4.3389   56.0079   20.8639 O   0  0  0  0  0  0  0  0  0  0  0  0
    6.9520   63.5158   20.6389 O   0  0  0  0  0  0  0  0  0  0  0  0
    3.1727   56.7561   24.8447 N   0  0  0  0  0  0  0  0  0  0  0  0
    3.0109   50.6940   19.7086 C   0  0  0  0  0  0  0  0  0  0  0  0
    4.7143   59.3465   22.0000 C   0  0  0  0  0  0  0  0  0  0  0  0
   -0.4502   51.8496   21.7763 O   0  0  0  0  0  0  0  0  0  0  0  0
    7.3041   61.0692   19.9314 C   0  0  0  0  0  0  0  0  0  0  0  0
    1.1581   53.7857   23.7993 C   0  0  0  0  0  0  0  0  0  0  0  0
    5.2760   62.2820   22.2712 O   0  0  0  0  0  0  0  0  0  0  0  0
    5.8863   58.0647   20.6017 N   0  0  0  0  0  0  0  0  0  0  0  0
    5.8019   61.4739   21.4879 C   0  0  0  0  0  0  0  0  0  0  0  0
  1 12  1  0
  1 15  1  0
  1 28  1  0
  2  6  1  0
  2 16  1  0
  2 19  1  0
  3 14  2  0
  3 16  1  0
  3 21  1  0
  4  7  1  0
  4 10  1  0
  4 11  1  0
  4 18  1  0
  4 24  1  0
  5 11  1  0
  5 16  2  0
  6 23  1  0
  6 28  1  0
  8 17  1  0
  8 23  1  0
  9 20  1  0
  9 25  1  0
  9 29  1  0
 10 22  2  0
 11 26  2  0
 12 23  1  0
 12 29  1  0
 13 18  1  0
 14 26  1  0
 15 25  1  0
 27 29  2  0
M  END
$$$$

     RDKit          3D

 26 27  0  0  0  0  0  0  0  0999 V2000
    5.9294   58.2120   20.5264 N   0  0  0  0  0  0  0  0  0  0  0  0
    1.3906   50.2388   22.2979 C   0  0  0  0  0  0  0  0  0  0  0  0
    0.8095   53.2058   20.3899 O   0  0  0  0  0  0  0  0  0  0  0  0
    6.4615   59.4659   20.3780 C   0  0  0  0  0  0  0  0  0  0  0  0
    6.0264   61.6869   21.6960 C   0  0  0  0  0  0  0  0  0  0  0  0
    1.6756   54.5948   24.4864 C   0  0  0  0  0  0  0  0  0  0  0  0
    3.8676   56.9029   22.9582 N   0  0  0  0  0  0  0  0  0  0  0  0
    1.5671   53.6272   22.5650 C   0  0  0  0  0  0  0  0  0  0  0  0
    5.5918   60.4086   21.5981 C   0  0  0  0  0  0  0  0  0  0  0  0
    2.7817   56.4214   25.1484 O   0  0  0  0  0  0  0  0  0  0  0  0
    4.2162   59.8964   24.3293 C   0  0  0  0  0  0  0  0  0  0  0  0
    2.5228   55.5451   24.0172 C   0  0  0  0  0  0  0  0  0  0  0  0
    7.5367   59.8449   19.4716 C   0  0  0  0  0  0  0  0  0  0  0  0
    4.9231   57.7964   21.3853 C   0  0  0  0  0  0  0  0  0  0  0  0
    2.3646   50.2769   23.4548 C   0  0  0  0  0  0  0  0  0  0  0  0
    3.0801   50.3076   19.9068 C   0  0  0  0  0  0  0  0  0  0  0  0
    6.7224   61.9587   20.7775 C   0  0  0  0  0  0  0  0  0  0  0  0
    0.8207   52.5788   21.5723 S   0  0  0  0  0  0  0  0  0  0  0  0
    2.5058   54.5263   22.0483 C   0  0  0  0  0  0  0  0  0  0  0  0
   -0.4652   51.9850   22.0449 O   0  0  0  0  0  0  0  0  0  0  0  0
    4.9540   59.1504   21.8969 C   0  0  0  0  0  0  0  0  0  0  0  0
    3.0121   51.7439   20.6759 C   0  0  0  0  0  0  0  0  0  0  0  0
    3.1595   55.8509   22.7265 C   0  0  0  0  0  0  0  0  0  0  0  0
    5.2197   62.1876   22.3517 O   0  0  0  0  0  0  0  0  0  0  0  0
    4.0701   59.7274   23.0393 C   0  0  0  0  0  0  0  0  0  0  0  0
    1.1955   53.6935   23.7083 C   0  0  0  0  0  0  0  0  0  0  0  0
  1  4  1  0
  1 14  1  0
  2 15  1  0
  2 18  1  0
  3 18  1  0
  4  9  1  0
  4 13  1  0
  5  9  1  0
  5 17  1  0
  5 24  2  0
  6 12  2  0
  6 26  1  0
  7 14  1  0
  7 23  1  0
  8 18  1  0
  8 19  1  0
  8 26  2  0
  9 21  1  0
 10 12  1  0
 11 25  2  0
 12 23  1  0
 14 21  1  0
 16 22  1  0
 18 20  1  0
 18 22  1  0
 19 23  2  0
 21 25  1  0
M  END
$$$$

     RDKit          3D

 28 29  0  0  0  0  0  0  0  0999 V2000
    5.1773   58.1562   21.3526 C   0  0  0  0  0  0  0  0  0  0  0  0
    6.7775   62.0295   20.6893 C   0  0  0  0  0  0  0  0  0  0  0  0
    1.2141   53.3441   23.8919 C   0  0  0  0  0  0  0  0  0  0  0  0
    4.9610   59.5453   22.0884 C   0  0  0  0  0  0  0  0  0  0  0  0
    2.4184   54.3698   22.1261 C   0  0  0  0  0  0  0  0  0  0  0  0
    2.3039   50.4015   23.2878 N   0  0  0  0  0  0  0  0  0  0  0  0
    2.5137   55.3403   24.1903 C   0  0  0  0  0  0  0  0  0  0  0  0
    5.3599   62.4040   22.6144 O   0  0  0  0  0  0  0  0  0  0  0  0
    6.8806   63.5755   20.6989 O   0  0  0  0  0  0  0  0  0  0  0  0
    3.0026   51.6536   20.7425 C   0  0  0  0  0  0  0  0  0  0  0  0
    6.4504   59.4701   20.2470 C   0  0  0  0  0  0  0  0  0  0  0  0
    3.0095   56.2093   25.1921 O   0  0  0  0  0  0  0  0  0  0  0  0
    5.6813   61.5861   21.7946 C   0  0  0  0  0  0  0  0  0  0  0  0
    1.4350   50.2429   22.1799 C   0  0  0  0  0  0  0  0  0  0  0  0
    5.9963   58.2447   20.4011 N   0  0  0  0  0  0  0  0  0  0  0  0
    3.0262   55.4200   22.9326 C   0  0  0  0  0  0  0  0  0  0  0  0
    3.9761   59.8227   23.0357 C   0  0  0  0  0  0  0  0  0  0  0  0
    4.2367   56.0235   20.9152 S   0  0  0  0  0  0  0  0  0  0  0  0
    0.8987   52.4456   21.4519 S   0  0  0  0  0  0  0  0  0  0  0  0
   -0.4164   51.8637   21.8282 O   0  0  0  0  0  0  0  0  0  0  0  0
    0.7631   53.0366   20.1294 O   0  0  0  0  0  0  0  0  0  0  0  0
    1.6327   54.4171   24.7481 C   0  0  0  0  0  0  0  0  0  0  0  0
    1.5276   53.4041   22.5609 C   0  0  0  0  0  0  0  0  0  0  0  0
    4.4958   59.4775   24.4413 C   0  0  0  0  0  0  0  0  0  0  0  0
    7.4841   59.6364   19.2583 C   0  0  0  0  0  0  0  0  0  0  0  0
    3.0582   50.6677   19.9177 C   0  0  0  0  0  0  0  0  0  0  0  0
    5.8161   60.4623   21.3524 C   0  0  0  0  0  0  0  0  0  0  0  0
    4.5561   57.0983   21.9325 C   0  0  0  0  0  0  0  0  0  0  0  0
  1  4  1  0
  1 15  1  0
  1 28  1  0
  2  9  1  0
  2 13  1  0
  3 22  2  0
  3 23  1  0
  4 17  1  0
  4 27  1  0
  5 16  1  0
  5 23  2  0
  6 14  1  0
  7 12  1  0
  7 16  2  0
  7 22  1  0
  8 13  2  0
 10 19  1  0
 10 26  2  0
 11 15  1  0
 11 25  1  0
 11 27  1  0
 13 27  1  0
 14 19  1  0
 16 28  1  0
 17 24  1  0
 18 28  2  0
 19 20  1  0
 19 21  1  0
 19 23  1  0
M  END
$$$$

     RDKit          3D

 27 28  0  0  0  0  0  0  0  0999 V2000
    1.8358   51.3665   21.3726 N   0  0  0  0  0  0  0  0  0  0  0  0
    5.8256   58.1649   20.5465 N   0  0  0  0  0  0  0  0  0  0  0  0
    2.5575   55.5434   24.2147 C   0  0  0  0  0  0  0  0  0  0  0  0
    3.9284   56.7730   22.7185 N   0  0  0  0  0  0  0  0  0  0  0  0
    1.3277   53.5496   23.7703 C   0  0  0  0  0  0  0  0  0  0  0  0
    6.4746   59.4064   20.2971 C   0  0  0  0  0  0  0  0  0  0  0  0
    3.8794   59.6194   22.9744 C   0  0  0  0  0  0  0  0  0  0  0  0
    5.1863   62.0553   22.3363 O   0  0  0  0  0  0  0  0  0  0  0  0
    3.1645   55.5896   22.8845 C   0  0  0  0  0  0  0  0  0  0  0  0
    0.7304   53.0586   20.1691 O   0  0  0  0  0  0  0  0  0  0  0  0
    2.4761   50.3289   23.3981 C   0  0  0  0  0  0  0  0  0  0  0  0
    6.7671   61.9818   20.7540 C   0  0  0  0  0  0  0  0  0  0  0  0
    4.7340   58.4115   21.7330 C   0  0  0  0  0  0  0  0  0  0  0  0
    2.8948   51.7602   20.8437 C   0  0  0  0  0  0  0  0  0  0  0  0
    4.4289   59.7483   24.3236 C   0  0  0  0  0  0  0  0  0  0  0  0
    5.8969   60.3098   21.2030 C   0  0  0  0  0  0  0  0  0  0  0  0
    6.8127   63.2933   20.7462 O   0  0  0  0  0  0  0  0  0  0  0  0
    2.7017   54.5452   22.0465 C   0  0  0  0  0  0  0  0  0  0  0  0
    7.6974   59.6956   19.3680 C   0  0  0  0  0  0  0  0  0  0  0  0
    3.1253   50.6792   19.9931 C   0  0  0  0  0  0  0  0  0  0  0  0
   -0.3206   52.1860   21.9360 O   0  0  0  0  0  0  0  0  0  0  0  0
    1.7540   54.5160   24.6796 C   0  0  0  0  0  0  0  0  0  0  0  0
    1.5549   50.3528   22.3743 C   0  0  0  0  0  0  0  0  0  0  0  0
    1.7170   53.5547   22.4916 C   0  0  0  0  0  0  0  0  0  0  0  0
    5.8403   61.4252   21.5267 C   0  0  0  0  0  0  0  0  0  0  0  0
    4.8739   59.6791   22.0903 C   0  0  0  0  0  0  0  0  0  0  0  0
    4.6713   57.1800   21.3299 C   0  0  0  0  0  0  0  0  0  0  0  0
  1 14  1  0
  1 23  1  0
  2  6  1  0
  2 13  1  0
  3  9  1  0
  3 22  1  0
  4  9  1  0
  4 27  1  0
  5 22  1  0
  5 24  1  0
  6 16  1  0
  6 19  1  0
  7 15  1  0
  7 26  1  0
  8 25  2  0
  9 18  1  0
 10 21  1  0
 11 23  1  0
 12 17  1  0
 12 25  1  0
 13 26  1  0
 13 27  1  0
 14 20  1  0
 14 24  1  0
 16 25  1  0
 16 26  1  0
 18 24  1  0
 21 24  1  0
M  END
$$$$

     RDKit          3D

 26 26  0  0  0  0  0  0  0  0999 V2000
    4.9557   59.8846   22.0026 C   0  0  0  0  0  0  0  0  0  0  0  0
    3.9011   56.6992   22.7049 N   0  0  0  0  0  0  0  0  0  0  0  0
   -0.3748   52.0872   21.8708 O   0  0  0  0  0  0  0  0  0  0  0  0
    3.0850   55.8109   23.2545 C   0  0  0  0  0  0  0  0  0  0  0  0
    6.5438   59.4489   20.3834 C   0  0  0  0  0  0  0  0  0  0  0  0
    2.4942   54.7794   22.3146 C   0  0  0  0  0  0  0  0  0  0  0  0
    6.4238   61.9586   21.2113 C   0  0  0  0  0  0  0  0  0  0  0  0
    2.3675   50.2485   23.2628 C   0  0  0  0  0  0  0  0  0  0  0  0
    3.0247   51.5089   20.7170 C   0  0  0  0  0  0  0  0  0  0  0  0
    5.0304   58.3090   21.5131 C   0  0  0  0  0  0  0  0  0  0  0  0
    5.2935   62.1338   22.2888 O   0  0  0  0  0  0  0  0  0  0  0  0
    7.5530   59.7287   19.4612 C   0  0  0  0  0  0  0  0  0  0  0  0
    1.1262   53.7125   23.9518 C   0  0  0  0  0  0  0  0  0  0  0  0
    1.1199   53.1930   20.2122 O   0  0  0  0  0  0  0  0  0  0  0  0
    4.1360   55.9707   20.7051 O   0  0  0  0  0  0  0  0  0  0  0  0
    1.4197   50.1254   22.1715 C   0  0  0  0  0  0  0  0  0  0  0  0
    4.4452   59.6874   24.2560 C   0  0  0  0  0  0  0  0  0  0  0  0
    0.9742   52.5623   21.5647 S   0  0  0  0  0  0  0  0  0  0  0  0
    6.8429   63.3475   20.8347 N   0  0  0  0  0  0  0  0  0  0  0  0
    3.1374   50.5064   19.6600 C   0  0  0  0  0  0  0  0  0  0  0  0
    1.5308   53.6622   22.5776 C   0  0  0  0  0  0  0  0  0  0  0  0
    1.6349   54.6364   24.8794 C   0  0  0  0  0  0  0  0  0  0  0  0
    6.1266   60.5906   21.0977 C   0  0  0  0  0  0  0  0  0  0  0  0
    5.9105   58.1735   20.5692 N   0  0  0  0  0  0  0  0  0  0  0  0
    3.7493   59.8083   22.8612 C   0  0  0  0  0  0  0  0  0  0  0  0
    4.2254   56.8175   21.8081 C   0  0  0  0  0  0  0  0  0  0  0  0
  1 10  1  0
  1 23  1  0
  1 25  1  0
  2  4  2  3
  2 26  1  0
  3 18  1  0
  4  6  1  0
  5 12  1  0
  5 23  1  0
  5 24  1  0
  6 21  1  0
  7 11  2  0
  7 19  1  0
  7 23  1  0
  8 16  1  0
  9 18  1  0
  9 20  1  0
 10 24  1  0
 10 26  1  0
 13 21  2  3
 13 22  1  0
 14 18  1  0
 15 26  2  0
 16 18  1  0
 17 25  1  0
 18 21  1  0
M  END
$$$$

     RDKit          3D

 27 28  0  0  0  0  0  0  0  0999 V2000
    5.2471   62.2147   22.3679 O   0  0  0  0  0  0  0  0  0  0  0  0
    5.0807   58.1639   21.3836 C   0  0  0  0  0  0  0  0  0  0  0  0
    2.3907   55.3871   24.4326 C   0  0  0  0  0  0  0  0  0  0  0  0
    6.9016   62.1746   20.6732 C   0  0  0  0  0  0  0  0  0  0  0  0
    2.2467   54.4234   22.2345 C   0  0  0  0  0  0  0  0  0  0  0  0
    0.8963   52.3892   21.7829 S   0  0  0  0  0  0  0  0  0  0  0  0
    6.0845   58.2421   20.4363 N   0  0  0  0  0  0  0  0  0  0  0  0
    5.7734   60.5022   21.4209 C   0  0  0  0  0  0  0  0  0  0  0  0
    4.6261   59.8478   24.2362 C   0  0  0  0  0  0  0  0  0  0  0  0
    1.4475   53.5493   22.6219 C   0  0  0  0  0  0  0  0  0  0  0  0
    3.9112   59.7173   22.9344 C   0  0  0  0  0  0  0  0  0  0  0  0
    2.8760   56.3829   25.2645 O   0  0  0  0  0  0  0  0  0  0  0  0
    6.5522   59.6412   20.3030 C   0  0  0  0  0  0  0  0  0  0  0  0
    2.8951   51.2382   20.7210 C   0  0  0  0  0  0  0  0  0  0  0  0
    1.0033   53.3575   24.0242 C   0  0  0  0  0  0  0  0  0  0  0  0
    3.2976   50.1842   19.7786 N   0  0  0  0  0  0  0  0  0  0  0  0
    3.5415   56.4016   22.9152 N   0  0  0  0  0  0  0  0  0  0  0  0
    7.7004   59.9383   19.3449 C   0  0  0  0  0  0  0  0  0  0  0  0
    2.2952   50.1768   23.5747 C   0  0  0  0  0  0  0  0  0  0  0  0
    1.4545   49.9816   22.2530 C   0  0  0  0  0  0  0  0  0  0  0  0
   -0.4636   52.0714   21.9330 O   0  0  0  0  0  0  0  0  0  0  0  0
    4.9306   59.5079   21.9977 C   0  0  0  0  0  0  0  0  0  0  0  0
    1.4806   54.3702   24.8012 C   0  0  0  0  0  0  0  0  0  0  0  0
    2.7593   55.4237   23.0556 C   0  0  0  0  0  0  0  0  0  0  0  0
    4.3155   56.8476   21.7509 C   0  0  0  0  0  0  0  0  0  0  0  0
    5.8206   61.8359   21.7415 C   0  0  0  0  0  0  0  0  0  0  0  0
    4.1877   55.9458   20.9591 O   0  0  0  0  0  0  0  0  0  0  0  0
  1 26  2  0
  2  7  1  0
  2 22  1  0
  2 25  1  0
  3 12  1  0
  3 23  2  0
  3 24  1  0
  4 26  1  0
  5 10  1  0
  5 24  2  0
  6 10  1  0
  6 21  1  0
  7 13  1  0
  8 13  1  0
  8 22  1  0
  8 26  1  0
  9 11  1  0
 10 15  2  0
 11 22  1  0
 13 18  1  0
 14 16  1  0
 14 20  1  0
 15 23  1  0
 17 24  1  0
 17 25  1  0
 19 20  1  0
 20 21  1  0
 25 27  2  0
M  END
$$$$

     RDKit          3D

 29 32  0  0  0  0  0  0  0  0999 V2000
    4.3186   55.9526   20.7282 N   0  0  0  0  0  0  0  0  0  0  0  0
    3.7384   56.7082   22.7228 N   0  0  0  0  0  0  0  0  0  0  0  0
    3.3899   55.0177   21.0822 C   0  0  0  0  0  0  0  0  0  0  0  0
    5.1341   58.1102   21.3650 C   0  0  0  0  0  0  0  0  0  0  0  0
    1.3259   53.5996   23.6386 C   0  0  0  0  0  0  0  0  0  0  0  0
    5.7280   60.4073   21.3639 C   0  0  0  0  0  0  0  0  0  0  0  0
    2.7462   56.3248   25.2938 O   0  0  0  0  0  0  0  0  0  0  0  0
    6.2941   62.0688   21.1309 C   0  0  0  0  0  0  0  0  0  0  0  0
    5.8986   58.1803   20.3139 N   0  0  0  0  0  0  0  0  0  0  0  0
    3.0062   50.9291   20.1573 C   0  0  0  0  0  0  0  0  0  0  0  0
    2.4551   55.4467   24.2165 C   0  0  0  0  0  0  0  0  0  0  0  0
    0.6635   53.0383   20.2310 O   0  0  0  0  0  0  0  0  0  0  0  0
    1.7006   53.7803   22.3575 C   0  0  0  0  0  0  0  0  0  0  0  0
    0.9436   52.5903   21.6171 S   0  0  0  0  0  0  0  0  0  0  0  0
    1.4851   50.3780   22.3201 C   0  0  0  0  0  0  0  0  0  0  0  0
    6.9475   63.6586   20.7269 O   0  0  0  0  0  0  0  0  0  0  0  0
    2.5429   50.5572   23.5504 C   0  0  0  0  0  0  0  0  0  0  0  0
    2.9271   55.5555   22.8453 C   0  0  0  0  0  0  0  0  0  0  0  0
    7.2267   61.8262   20.1871 C   0  0  0  0  0  0  0  0  0  0  0  0
   -0.2825   51.9408   22.1583 O   0  0  0  0  0  0  0  0  0  0  0  0
    4.1008   59.4844   23.5907 C   0  0  0  0  0  0  0  0  0  0  0  0
    6.5585   59.4829   20.2972 C   0  0  0  0  0  0  0  0  0  0  0  0
    4.8129   59.4350   22.0004 C   0  0  0  0  0  0  0  0  0  0  0  0
    7.6208   59.5957   19.3297 C   0  0  0  0  0  0  0  0  0  0  0  0
    4.3028   56.9336   21.6195 C   0  0  0  0  0  0  0  0  0  0  0  0
    5.4772   62.3120   22.2435 O   0  0  0  0  0  0  0  0  0  0  0  0
    1.5715   54.4215   24.5757 C   0  0  0  0  0  0  0  0  0  0  0  0
    2.9178   51.8527   20.8101 C   0  0  0  0  0  0  0  0  0  0  0  0
    2.5645   54.4296   21.8955 C   0  0  0  0  0  0  0  0  0  0  0  0
  1  3  2  0
  1 25  1  0
  2 18  1  0
  2 25  2  0
  3 29  1  0
  4  9  1  0
  4 23  1  0
  4 25  1  0
  5 13  1  0
  5 27  2  0
  6  8  1  0
  6 22  1  0
  6 23  1  0
  7 11  1  0
  8 16  1  0
  8 19  1  0
  8 26  1  0
  9 22  1  0
 10 28  1  0
 11 18  2  0
 11 27  1  0
 12 14  1  0
 13 14  1  0
 13 29  2  0
 14 15  1  0
 14 20  1  0
 14 28  1  0
 15 17  1  0
 18 29  1  0
 19 24  1  0
 21 23  1  0
 22 24  1  0
M  END
$$$$

     RDKit          3D

 26 27  0  0  0  0  0  0  0  0999 V2000
    6.8670   62.1541   20.7343 C   0  0  0  0  0  0  0  0  0  0  0  0
    6.4664   59.4803   20.3912 C   0  0  0  0  0  0  0  0  0  0  0  0
    5.1099   62.2517   22.4423 O   0  0  0  0  0  0  0  0  0  0  0  0
    2.2670   54.2905   21.9949 C   0  0  0  0  0  0  0  0  0  0  0  0
    4.9641   59.8161   22.0868 C   0  0  0  0  0  0  0  0  0  0  0  0
    2.7235   51.9912   20.7063 C   0  0  0  0  0  0  0  0  0  0  0  0
    2.5194   55.4307   24.0622 C   0  0  0  0  0  0  0  0  0  0  0  0
    4.4496   59.7937   24.1302 C   0  0  0  0  0  0  0  0  0  0  0  0
    4.1685   57.1733   22.3135 N   0  0  0  0  0  0  0  0  0  0  0  0
    1.3674   53.4396   22.5331 C   0  0  0  0  0  0  0  0  0  0  0  0
    5.6809   61.6792   21.7373 C   0  0  0  0  0  0  0  0  0  0  0  0
    2.6516   50.3762   23.4760 N   0  0  0  0  0  0  0  0  0  0  0  0
   -0.0511   52.2187   21.7072 O   0  0  0  0  0  0  0  0  0  0  0  0
    7.6045   59.7211   19.3515 C   0  0  0  0  0  0  0  0  0  0  0  0
    5.9075   58.2960   20.5949 N   0  0  0  0  0  0  0  0  0  0  0  0
    1.5234   50.3574   22.4043 C   0  0  0  0  0  0  0  0  0  0  0  0
    4.1188   56.0553   20.9891 O   0  0  0  0  0  0  0  0  0  0  0  0
    3.0456   50.2446   19.9096 C   0  0  0  0  0  0  0  0  0  0  0  0
    2.9879   55.4887   22.6684 C   0  0  0  0  0  0  0  0  0  0  0  0
    1.0630   53.5568   23.8964 C   0  0  0  0  0  0  0  0  0  0  0  0
    6.8102   63.4811   20.7254 O   0  0  0  0  0  0  0  0  0  0  0  0
    3.8449   59.8423   22.9208 C   0  0  0  0  0  0  0  0  0  0  0  0
    1.7476   54.7047   24.8085 C   0  0  0  0  0  0  0  0  0  0  0  0
    4.8862   58.3844   21.6979 C   0  0  0  0  0  0  0  0  0  0  0  0
    5.9755   60.7198   21.3959 C   0  0  0  0  0  0  0  0  0  0  0  0
    2.8803   51.0050   21.1744 C   0  0  0  0  0  0  0  0  0  0  0  0
  1 11  1  0
  1 21  1  0
  2 14  1  0
  2 15  1  0
  2 25  1  0
  3 11  2  0
  4 10  2  0
  4 19  1  0
  5 22  1  0
  5 24  1  0
  5 25  1  0
  6 26  1  0
  7 19  2  0
  7 23  1  0
  8 22  1  0
  9 17  1  0
  9 19  1  0
  9 24  1  0
 10 13  1  0
 10 20  1  0
 11 25  1  0
 12 16  1  0
 13 16  1  0
 15 24  1  0
 16 26  1  0
 18 26  1  0
 20 23  2  0
M  END
$$$$

     RDKit          3D

 29 30  0  0  0  0  0  0  0  0999 V2000
    4.2610   56.9044   21.6987 C   0  0  0  0  0  0  0  0  0  0  0  0
    3.1545   55.6334   22.9002 C   0  0  0  0  0  0  0  0  0  0  0  0
    2.5598   55.4440   24.2204 C   0  0  0  0  0  0  0  0  0  0  0  0
    7.3944   59.7968   19.6004 C   0  0  0  0  0  0  0  0  0  0  0  0
    6.8968   63.6606   20.5651 O   0  0  0  0  0  0  0  0  0  0  0  0
    5.6628   60.3268   21.3062 C   0  0  0  0  0  0  0  0  0  0  0  0
    3.9650   59.8944   22.9297 C   0  0  0  0  0  0  0  0  0  0  0  0
    5.2590   62.2902   22.3702 O   0  0  0  0  0  0  0  0  0  0  0  0
    1.5999   53.3784   22.5733 C   0  0  0  0  0  0  0  0  0  0  0  0
    2.9799   56.4239   25.0255 N   0  0  0  0  0  0  0  0  0  0  0  0
    5.9848   58.1904   20.6138 N   0  0  0  0  0  0  0  0  0  0  0  0
    4.3493   55.9880   20.6583 O   0  0  0  0  0  0  0  0  0  0  0  0
    2.6963   54.4605   22.0930 C   0  0  0  0  0  0  0  0  0  0  0  0
    1.2915   53.5796   23.8208 C   0  0  0  0  0  0  0  0  0  0  0  0
    3.1650   50.3155   19.6768 C   0  0  0  0  0  0  0  0  0  0  0  0
   -0.2681   52.0930   22.0548 O   0  0  0  0  0  0  0  0  0  0  0  0
    1.0694   52.4292   21.4826 S   0  0  0  0  0  0  0  0  0  0  0  0
    2.8680   51.4941   20.5859 C   0  0  0  0  0  0  0  0  0  0  0  0
    6.8386   62.3232   20.6298 C   0  0  0  0  0  0  0  0  0  0  0  0
    4.8887   59.5438   21.8945 C   0  0  0  0  0  0  0  0  0  0  0  0
    4.4954   59.7336   24.2134 C   0  0  0  0  0  0  0  0  0  0  0  0
    4.0852   56.7679   22.5884 N   0  0  0  0  0  0  0  0  0  0  0  0
    6.4271   59.3853   20.3934 C   0  0  0  0  0  0  0  0  0  0  0  0
    0.7613   52.9940   20.1039 O   0  0  0  0  0  0  0  0  0  0  0  0
    1.6681   54.4987   24.7302 C   0  0  0  0  0  0  0  0  0  0  0  0
    2.5052   50.0914   23.4905 C   0  0  0  0  0  0  0  0  0  0  0  0
    1.6961   50.2553   22.4443 C   0  0  0  0  0  0  0  0  0  0  0  0
    5.0374   58.1528   21.4720 C   0  0  0  0  0  0  0  0  0  0  0  0
    5.7288   61.5533   21.5557 C   0  0  0  0  0  0  0  0  0  0  0  0
  1 12  2  0
  1 22  1  0
  1 28  1  0
  2  3  2  0
  2 13  1  0
  2 22  1  0
  3 10  1  0
  3 25  1  0
  4 23  1  0
  5 19  1  0
  6 20  1  0
  6 23  1  0
  6 29  1  0
  7 20  1  0
  7 21  1  0
  8 29  2  0
  9 13  2  0
  9 14  1  0
  9 17  1  0
 11 23  1  0
 11 28  1  0
 14 25  2  0
 15 18  1  0
 16 17  1  0
 17 18  1  0
 17 24  1  0
 17 27  1  0
 19 29  1  0
 20 28  1  0
 26 27  2  0
M  END
$$$$
