
     RDKit          3D

 26 27  0  0  0  0  0  0  0  0999 V2000
    5.1791   56.4597   23.3709 C   0  0  0  0  0  0  0  0  0  0  0  0
    2.9760   55.8445   24.5537 C   0  0  0  0  0  0  0  0  0  0  0  0
    1.4774   51.3995   19.5398 C   0  0  0  0  0  0  0  0  0  0  0  0
    4.8412   61.7282   21.6722 O   0  0  0  0  0  0  0  0  0  0  0  0
    6.6228   59.2037   21.2196 C   0  0  0  0  0  0  0  0  0  0  0  0
    5.3703   57.4142   22.1624 C   0  0  0  0  0  0  0  0  0  0  0  0
    5.1586   61.3373   19.3018 C   0  0  0  0  0  0  0  0  0  0  0  0
    2.4928   50.9784   21.8619 C   0  0  0  0  0  0  0  0  0  0  0  0
    7.4083   60.3838   21.7725 C   0  0  0  0  0  0  0  0  0  0  0  0
    4.3858   58.5840   21.9956 C   0  0  0  0  0  0  0  0  0  0  0  0
    6.6682   58.1156   22.2081 N   0  0  0  0  0  0  0  0  0  0  0  0
    4.5927   60.8137   20.6181 C   0  0  0  0  0  0  0  0  0  0  0  0
    1.3261   54.4552   23.4444 C   0  0  0  0  0  0  0  0  0  0  0  0
    1.7483   50.0130   18.9777 C   0  0  0  0  0  0  0  0  0  0  0  0
    1.2681   51.4119   21.0604 C   0  0  0  0  0  0  0  0  0  0  0  0
    1.8446   53.6719   21.1855 O   0  0  0  0  0  0  0  0  0  0  0  0
    0.8004   52.6990   21.4941 O   0  0  0  0  0  0  0  0  0  0  0  0
    6.1699   55.4183   23.2810 O   0  0  0  0  0  0  0  0  0  0  0  0
    3.3852   55.0298   22.3298 C   0  0  0  0  0  0  0  0  0  0  0  0
    3.2650   56.5075   25.7118 O   0  0  0  0  0  0  0  0  0  0  0  0
    5.6176   62.4713   19.1813 O   0  0  0  0  0  0  0  0  0  0  0  0
    1.7437   55.1858   24.5559 C   0  0  0  0  0  0  0  0  0  0  0  0
    5.1189   59.4022   20.9033 C   0  0  0  0  0  0  0  0  0  0  0  0
    4.0930   59.3617   23.2792 C   0  0  0  0  0  0  0  0  0  0  0  0
    2.1550   54.3658   22.3320 C   0  0  0  0  0  0  0  0  0  0  0  0
    3.8197   55.7919   23.4360 C   0  0  0  0  0  0  0  0  0  0  0  0
  1  6  1  0
  1 18  1  0
  1 26  1  0
  2 20  1  0
  2 22  4  0
  2 26  4  0
  3 14  1  0
  3 15  1  0
  4 12  1  0
  5  9  1  0
  5 11  1  0
  5 23  1  0
  6 10  1  0
  6 11  1  0
  7 12  1  0
  7 21  2  0
  8 15  1  0
 10 23  1  0
 10 24  1  0
 12 23  1  0
 13 22  4  0
 13 25  4  0
 15 17  1  0
 16 17  1  0
 16 25  1  0
 19 25  4  0
 19 26  4  0
M  END
$$$$

     RDKit          3D

 28 30  0  0  0  0  0  0  0  0999 V2000
    5.7531   58.5759   22.3195 N   0  0  0  0  0  0  0  0  0  0  0  0
    5.1967   62.7471   20.1226 O   0  0  0  0  0  0  0  0  0  0  0  0
    4.8357   54.0627   23.3048 C   0  0  0  0  0  0  0  0  0  0  0  0
    2.9385   59.9734   20.1744 C   0  0  0  0  0  0  0  0  0  0  0  0
    3.2793   52.2430   23.0396 C   0  0  0  0  0  0  0  0  0  0  0  0
    4.5719   58.5440   21.7346 C   0  0  0  0  0  0  0  0  0  0  0  0
    3.7001   57.3051   21.8583 C   0  0  0  0  0  0  0  0  0  0  0  0
    7.0455   61.8366   21.4218 C   0  0  0  0  0  0  0  0  0  0  0  0
    0.0649   50.9762   23.1401 C   0  0  0  0  0  0  0  0  0  0  0  0
   -0.1491   51.2727   20.6298 C   0  0  0  0  0  0  0  0  0  0  0  0
    5.8236   61.7789   20.8425 C   0  0  0  0  0  0  0  0  0  0  0  0
    4.4024   56.2602   22.4177 N   0  0  0  0  0  0  0  0  0  0  0  0
    6.0261   54.4896   23.8286 O   0  0  0  0  0  0  0  0  0  0  0  0
    2.3854   53.1030   22.4016 C   0  0  0  0  0  0  0  0  0  0  0  0
    0.7761   51.3867   21.8419 C   0  0  0  0  0  0  0  0  0  0  0  0
    8.5337   60.2540   22.8854 C   0  0  0  0  0  0  0  0  0  0  0  0
    7.9439   62.8703   21.3985 N   0  0  0  0  0  0  0  0  0  0  0  0
    6.2080   59.8039   21.9757 C   0  0  0  0  0  0  0  0  0  0  0  0
    4.5097   52.7238   23.4896 C   0  0  0  0  0  0  0  0  0  0  0  0
    5.2567   60.5046   21.1638 C   0  0  0  0  0  0  0  0  0  0  0  0
    2.7323   54.4499   22.2143 C   0  0  0  0  0  0  0  0  0  0  0  0
   -0.2870   49.4984   23.1977 C   0  0  0  0  0  0  0  0  0  0  0  0
    1.1468   52.7700   21.9270 O   0  0  0  0  0  0  0  0  0  0  0  0
    1.7993   60.5090   21.0281 C   0  0  0  0  0  0  0  0  0  0  0  0
    3.9670   54.9406   22.6445 C   0  0  0  0  0  0  0  0  0  0  0  0
    4.1715   59.7585   20.9641 C   0  0  0  0  0  0  0  0  0  0  0  0
    7.2894   60.5705   22.1453 C   0  0  0  0  0  0  0  0  0  0  0  0
    2.5368   57.3386   21.4979 O   0  0  0  0  0  0  0  0  0  0  0  0
  1  6  2  0
  1 18  1  0
  2 11  1  0
  3 13  1  0
  3 19  4  0
  3 25  4  0
  4 24  1  0
  4 26  1  0
  5 14  4  0
  5 19  4  0
  6  7  1  0
  6 26  1  0
  7 12  1  0
  7 28  2  0
  8 11  2  0
  8 17  1  0
  8 27  1  0
  9 15  1  0
  9 22  1  0
 10 15  1  0
 11 20  1  0
 12 25  1  0
 14 21  4  0
 14 23  1  0
 15 23  1  0
 16 27  1  0
 18 20  1  0
 18 27  2  0
 20 26  2  0
 21 25  4  0
M  END
$$$$

     RDKit          2D

  1  0  0  0  0  0  0  0  0  0999 V2000
    0.0000    0.0000    0.0000 C   0  0  0  0  0  0  0  0  0  0  0  0
M  END
$$$$

     RDKit          3D

 29 31  0  0  0  0  0  0  0  0999 V2000
    3.7149   55.1210   21.5099 C   0  0  0  0  0  0  0  0  0  0  0  0
    0.9260   51.3315   23.1268 C   0  0  0  0  0  0  0  0  0  0  0  0
    5.6776   61.2022   22.4951 C   0  0  0  0  0  0  0  0  0  0  0  0
    5.5951   58.6995   19.7981 N   0  0  0  0  0  0  0  0  0  0  0  0
    5.3111   60.0904   21.5916 C   0  0  0  0  0  0  0  0  0  0  0  0
    2.5073   57.4587   19.8585 O   0  0  0  0  0  0  0  0  0  0  0  0
    3.5098   54.8382   23.9038 C   0  0  0  0  0  0  0  0  0  0  0  0
    6.9050   61.9834   22.0753 C   0  0  0  0  0  0  0  0  0  0  0  0
    7.2889   63.0525   22.8626 O   0  0  0  0  0  0  0  0  0  0  0  0
    7.1991   60.5008   20.1336 C   0  0  0  0  0  0  0  0  0  0  0  0
    4.2796   55.8599   20.3242 C   0  0  0  0  0  0  0  0  0  0  0  0
    4.9736   56.4793   22.9965 O   0  0  0  0  0  0  0  0  0  0  0  0
    4.2823   59.2454   21.6929 C   0  0  0  0  0  0  0  0  0  0  0  0
    2.1545   50.4857   23.4688 C   0  0  0  0  0  0  0  0  0  0  0  0
    2.5743   53.8170   23.7049 C   0  0  0  0  0  0  0  0  0  0  0  0
    7.5846   61.6242   20.9679 C   0  0  0  0  0  0  0  0  0  0  0  0
    0.8995   52.0615   20.8671 O   0  0  0  0  0  0  0  0  0  0  0  0
    3.6856   58.7292   23.9928 N   0  0  0  0  0  0  0  0  0  0  0  0
    0.3084   51.8605   24.2882 O   0  0  0  0  0  0  0  0  0  0  0  0
    4.5491   58.3907   20.5228 C   0  0  0  0  0  0  0  0  0  0  0  0
    2.1818   53.4153   22.4185 C   0  0  0  0  0  0  0  0  0  0  0  0
    4.0694   55.4768   22.8082 C   0  0  0  0  0  0  0  0  0  0  0  0
    3.1817   59.1306   22.6699 C   0  0  0  0  0  0  0  0  0  0  0  0
    2.7672   54.0981   21.3327 C   0  0  0  0  0  0  0  0  0  0  0  0
    1.2172   52.4207   22.1846 N   0  0  0  0  0  0  0  0  0  0  0  0
    1.7881   49.2571   24.2918 C   0  0  0  0  0  0  0  0  0  0  0  0
    6.1173   59.7848   20.4449 C   0  0  0  0  0  0  0  0  0  0  0  0
    5.0364   61.4529   23.5105 O   0  0  0  0  0  0  0  0  0  0  0  0
    3.6671   57.2302   20.1847 C   0  0  0  0  0  0  0  0  0  0  0  0
  1 11  1  0
  1 22  4  0
  1 24  4  0
  2 14  1  0
  2 19  1  0
  2 25  1  0
  3  5  1  0
  3  8  1  0
  3 28  2  0
  4 20  2  0
  4 27  1  0
  5 13  2  0
  5 27  1  0
  6 29  2  0
  7 15  4  0
  7 22  4  0
  8  9  1  0
  8 16  2  0
 10 16  1  0
 10 27  2  0
 11 29  1  0
 12 22  1  0
 13 20  1  0
 13 23  1  0
 14 26  1  0
 15 21  4  0
 17 25  1  0
 18 23  1  0
 20 29  1  0
 21 24  4  0
 21 25  1  0
M  END
$$$$

     RDKit          3D

 27 29  0  0  0  0  0  0  0  0999 V2000
    4.1715   55.7663   22.7319 C   0  0  0  0  0  0  0  0  0  0  0  0
    5.3210   56.5488   22.1340 C   0  0  0  0  0  0  0  0  0  0  0  0
    5.1043   61.8422   19.0489 F   0  0  0  0  0  0  0  0  0  0  0  0
    5.2506   60.2620   22.1131 C   0  0  0  0  0  0  0  0  0  0  0  0
    5.9731   58.5219   20.6958 N   0  0  0  0  0  0  0  0  0  0  0  0
    6.4798   59.7315   21.3651 C   0  0  0  0  0  0  0  0  0  0  0  0
    2.1342   54.4607   22.4282 C   0  0  0  0  0  0  0  0  0  0  0  0
    1.2363   53.9446   21.5236 O   0  0  0  0  0  0  0  0  0  0  0  0
    3.0606   59.1184   22.9018 C   0  0  0  0  0  0  0  0  0  0  0  0
    4.5061   61.0134   21.0817 N   0  0  0  0  0  0  0  0  0  0  0  0
    0.5849   52.7871   22.1306 O   0  0  0  0  0  0  0  0  0  0  0  0
    4.9452   56.1916   24.9455 O   0  0  0  0  0  0  0  0  0  0  0  0
    2.9528   54.9056   24.6563 C   0  0  0  0  0  0  0  0  0  0  0  0
   -0.4495   50.7858   21.3819 C   0  0  0  0  0  0  0  0  0  0  0  0
    4.8970   57.9271   21.5369 C   0  0  0  0  0  0  0  0  0  0  0  0
    7.6774   59.4145   22.2594 C   0  0  0  0  0  0  0  0  0  0  0  0
    2.7600   60.1328   23.9962 C   0  0  0  0  0  0  0  0  0  0  0  0
    5.9369   55.7577   21.0991 O   0  0  0  0  0  0  0  0  0  0  0  0
    3.2025   55.1839   21.8946 C   0  0  0  0  0  0  0  0  0  0  0  0
    2.0847   51.0020   21.5034 C   0  0  0  0  0  0  0  0  0  0  0  0
    4.5625   58.9852   22.6117 C   0  0  0  0  0  0  0  0  0  0  0  0
    2.0042   54.3297   23.8097 C   0  0  0  0  0  0  0  0  0  0  0  0
    2.3949   49.8532   20.5577 C   0  0  0  0  0  0  0  0  0  0  0  0
    4.0251   55.6162   24.1158 C   0  0  0  0  0  0  0  0  0  0  0  0
    0.7546   51.7040   21.2054 C   0  0  0  0  0  0  0  0  0  0  0  0
    5.5436   61.7015   20.3213 C   0  0  0  0  0  0  0  0  0  0  0  0
    6.7904   60.8303   20.3485 C   0  0  0  0  0  0  0  0  0  0  0  0
  1  2  1  0
  1 19  4  0
  1 24  4  0
  2 15  1  0
  2 18  1  0
  3 26  1  0
  4  6  1  0
  4 10  1  0
  4 21  1  0
  5  6  1  0
  5 15  1  0
  6 16  1  0
  6 27  1  0
  7  8  1  0
  7 19  4  0
  7 22  4  0
  8 11  1  0
  9 17  1  0
  9 21  1  0
 10 26  1  0
 11 25  1  0
 12 24  1  0
 13 22  4  0
 13 24  4  0
 14 25  1  0
 15 21  1  0
 20 23  1  0
 20 25  1  0
 26 27  1  0
M  END
$$$$

     RDKit          3D

 28 29  0  0  0  0  0  0  0  0999 V2000
    5.9330   58.8695   23.6978 O   0  0  0  0  0  0  0  0  0  0  0  0
    2.9938   57.3435   22.0659 N   0  0  0  0  0  0  0  0  0  0  0  0
    3.2187   56.6907   19.8431 O   0  0  0  0  0  0  0  0  0  0  0  0
    2.4108   56.2460   24.1108 C   0  0  0  0  0  0  0  0  0  0  0  0
    3.7303   59.0105   20.4077 C   0  0  0  0  0  0  0  0  0  0  0  0
    1.6600   53.9622   24.1842 C   0  0  0  0  0  0  0  0  0  0  0  0
    4.1319   59.7132   21.6468 N   0  0  0  0  0  0  0  0  0  0  0  0
    1.4791   52.7577   22.0705 O   0  0  0  0  0  0  0  0  0  0  0  0
    1.7916   53.8852   22.7956 C   0  0  0  0  0  0  0  0  0  0  0  0
    6.0418   58.9441   20.4690 C   0  0  0  0  0  0  0  0  0  0  0  0
    7.5682   60.4317   23.1155 C   0  0  0  0  0  0  0  0  0  0  0  0
    2.2173   54.9957   22.0598 C   0  0  0  0  0  0  0  0  0  0  0  0
    7.3304   59.3116   19.7488 C   0  0  0  0  0  0  0  0  0  0  0  0
    5.6001   59.9592   21.5214 C   0  0  0  0  0  0  0  0  0  0  0  0
    2.6915   49.1163   20.1917 C   0  0  0  0  0  0  0  0  0  0  0  0
    3.3565   60.9460   21.8280 C   0  0  0  0  0  0  0  0  0  0  0  0
    3.9651   51.3655   21.9580 C   0  0  0  0  0  0  0  0  0  0  0  0
    1.7288   51.5898   22.9126 O   0  0  0  0  0  0  0  0  0  0  0  0
    2.5409   56.1827   22.7147 C   0  0  0  0  0  0  0  0  0  0  0  0
    2.7160   57.4259   24.7400 O   0  0  0  0  0  0  0  0  0  0  0  0
    3.6316   61.6224   23.1658 C   0  0  0  0  0  0  0  0  0  0  0  0
    2.6030   50.7141   22.1826 C   0  0  0  0  0  0  0  0  0  0  0  0
    4.9131   58.9835   19.5387 N   0  0  0  0  0  0  0  0  0  0  0  0
    3.2817   57.5399   20.7325 C   0  0  0  0  0  0  0  0  0  0  0  0
    8.0062   61.2509   22.3251 O   0  0  0  0  0  0  0  0  0  0  0  0
    1.9739   55.1479   24.8484 C   0  0  0  0  0  0  0  0  0  0  0  0
    1.9232   50.2225   20.8971 C   0  0  0  0  0  0  0  0  0  0  0  0
    6.2946   59.6727   22.8441 C   0  0  0  0  0  0  0  0  0  0  0  0
  1 28  2  0
  2 19  1  0
  2 24  1  0
  3 24  2  0
  4 19  4  0
  4 20  1  0
  4 26  4  0
  5  7  1  0
  5 23  1  0
  5 24  1  0
  6  9  4  0
  6 26  4  0
  7 14  1  0
  7 16  1  0
  8  9  1  0
  8 18  1  0
  9 12  4  0
 10 13  1  0
 10 14  1  0
 10 23  1  0
 11 25  2  0
 11 28  1  0
 12 19  4  0
 14 28  1  0
 15 27  1  0
 16 21  1  0
 17 22  1  0
 18 22  1  0
 22 27  1  0
M  END
$$$$

     RDKit          2D

  1  0  0  0  0  0  0  0  0  0999 V2000
    0.0000    0.0000    0.0000 C   0  0  0  0  0  0  0  0  0  0  0  0
M  END
$$$$

     RDKit          2D

  1  0  0  0  0  0  0  0  0  0999 V2000
    0.0000    0.0000    0.0000 C   0  0  0  0  0  0  0  0  0  0  0  0
M  END
$$$$

     RDKit          3D

 28 29  0  0  0  0  0  0  0  0999 V2000
    4.6080   57.7257   22.5472 C   0  0  0  0  0  0  0  0  0  0  0  0
    5.7698   60.3951   20.6974 C   0  0  0  0  0  0  0  0  0  0  0  0
    1.8020   56.4014   23.8647 C   0  0  0  0  0  0  0  0  0  0  0  0
    5.3314   56.9104   21.5356 N   0  0  0  0  0  0  0  0  0  0  0  0
    3.1159   55.9854   23.6461 C   0  0  0  0  0  0  0  0  0  0  0  0
    0.9583   54.3910   23.1057 C   0  0  0  0  0  0  0  0  0  0  0  0
    4.2841   56.9270   23.8416 C   0  0  0  0  0  0  0  0  0  0  0  0
    3.9579   61.8157   19.9362 O   0  0  0  0  0  0  0  0  0  0  0  0
    5.4561   56.2104   24.2753 O   0  0  0  0  0  0  0  0  0  0  0  0
    1.8819   51.0780   20.3375 C   0  0  0  0  0  0  0  0  0  0  0  0
    6.2312   59.1424   21.4309 C   0  0  0  0  0  0  0  0  0  0  0  0
    3.1192   53.1866   20.0337 C   0  0  0  0  0  0  0  0  0  0  0  0
    2.2169   53.8612   22.8574 C   0  0  0  0  0  0  0  0  0  0  0  0
    5.5873   58.8874   22.8048 C   0  0  0  0  0  0  0  0  0  0  0  0
    3.5874   51.8625   22.6362 O   0  0  0  0  0  0  0  0  0  0  0  0
    5.4899   60.6696   24.5724 C   0  0  0  0  0  0  0  0  0  0  0  0
    0.7340   55.6253   23.6132 N   0  0  0  0  0  0  0  0  0  0  0  0
    1.4944   57.6746   24.3385 N   0  0  0  0  0  0  0  0  0  0  0  0
    7.2513   57.2753   20.0355 C   0  0  0  0  0  0  0  0  0  0  0  0
    3.1060   50.3160   20.2471 N   0  0  0  0  0  0  0  0  0  0  0  0
    4.3570   60.4640   20.1245 C   0  0  0  0  0  0  0  0  0  0  0  0
    2.7849   53.2797   18.5460 C   0  0  0  0  0  0  0  0  0  0  0  0
    5.9715   57.8647   20.6212 C   0  0  0  0  0  0  0  0  0  0  0  0
    2.3555   52.4739   22.2626 C   0  0  0  0  0  0  0  0  0  0  0  0
    3.3077   54.6931   23.1299 C   0  0  0  0  0  0  0  0  0  0  0  0
    6.5336   61.3577   20.5521 O   0  0  0  0  0  0  0  0  0  0  0  0
    4.9631   60.0749   23.4941 C   0  0  0  0  0  0  0  0  0  0  0  0
    2.1350   52.4256   20.8183 N   0  0  0  0  0  0  0  0  0  0  0  0
  1  4  1  0
  1  7  1  0
  1 14  1  0
  2 11  1  0
  2 21  1  0
  2 26  2  0
  3  5  4  0
  3 17  4  0
  3 18  1  0
  4 23  1  0
  5  7  1  0
  5 25  4  0
  6 13  4  0
  6 17  4  0
  7  9  1  0
  8 21  1  0
 10 20  1  0
 10 28  1  0
 11 14  1  0
 11 23  1  0
 12 22  1  0
 12 28  1  0
 13 24  1  0
 13 25  4  0
 14 27  1  0
 15 24  1  0
 16 27  2  0
 19 23  1  0
 24 28  1  0
M  END
$$$$

     RDKit          3D

 28 29  0  0  0  0  0  0  0  0999 V2000
    4.7708   57.0946   23.1937 C   0  0  0  0  0  0  0  0  0  0  0  0
    5.4898   61.0267   20.6739 C   0  0  0  0  0  0  0  0  0  0  0  0
    2.1502   55.9111   24.0043 C   0  0  0  0  0  0  0  0  0  0  0  0
    6.8954   59.0520   21.2995 C   0  0  0  0  0  0  0  0  0  0  0  0
    5.7200   58.3079   23.2493 C   0  0  0  0  0  0  0  0  0  0  0  0
    1.9242   51.9076   20.4506 N   0  0  0  0  0  0  0  0  0  0  0  0
    5.4838   59.6316   21.2631 C   0  0  0  0  0  0  0  0  0  0  0  0
    1.1903   52.9459   19.7200 C   0  0  0  0  0  0  0  0  0  0  0  0
    4.9152   60.1761   18.4473 N   0  0  0  0  0  0  0  0  0  0  0  0
    1.2494   53.6496   23.5222 C   0  0  0  0  0  0  0  0  0  0  0  0
    3.4599   55.2794   24.4623 C   0  0  0  0  0  0  0  0  0  0  0  0
    2.8259   51.1529   19.5834 C   0  0  0  0  0  0  0  0  0  0  0  0
    2.8612   52.0085   22.6376 O   0  0  0  0  0  0  0  0  0  0  0  0
    0.1364   52.3678   18.7832 C   0  0  0  0  0  0  0  0  0  0  0  0
    3.6311   59.8739   23.0173 C   0  0  0  0  0  0  0  0  0  0  0  0
    3.3278   60.0779   24.4943 C   0  0  0  0  0  0  0  0  0  0  0  0
    4.2678   56.7205   22.1316 O   0  0  0  0  0  0  0  0  0  0  0  0
    2.8186   52.6405   21.3296 O   0  0  0  0  0  0  0  0  0  0  0  0
    3.7996   54.0484   23.6149 C   0  0  0  0  0  0  0  0  0  0  0  0
    6.8777   58.0158   22.3561 N   0  0  0  0  0  0  0  0  0  0  0  0
    2.6511   53.0274   23.6173 C   0  0  0  0  0  0  0  0  0  0  0  0
    1.2815   55.1029   23.0665 C   0  0  0  0  0  0  0  0  0  0  0  0
    1.8134   57.0305   24.3914 O   0  0  0  0  0  0  0  0  0  0  0  0
    7.3559   58.4616   19.9715 C   0  0  0  0  0  0  0  0  0  0  0  0
    5.1210   59.6300   22.7517 C   0  0  0  0  0  0  0  0  0  0  0  0
    5.7709   62.0510   21.2865 O   0  0  0  0  0  0  0  0  0  0  0  0
    4.5885   56.3168   24.4910 C   0  0  0  0  0  0  0  0  0  0  0  0
    5.1428   61.1867   19.2171 C   0  0  0  0  0  0  0  0  0  0  0  0
  1  5  1  0
  1 17  2  0
  1 27  1  0
  2  7  1  0
  2 26  2  0
  2 28  1  0
  3 11  1  0
  3 22  1  0
  3 23  2  0
  4  7  1  0
  4 20  1  0
  4 24  1  0
  5 20  1  0
  5 25  1  0
  6  8  1  0
  6 12  1  0
  6 18  1  0
  7 25  1  0
  8 14  1  0
  9 28  2  0
 10 21  1  0
 10 22  1  0
 11 19  1  0
 11 27  1  0
 13 18  1  0
 13 21  1  0
 15 16  1  0
 15 25  1  0
 19 21  1  0
M  END
$$$$

     RDKit          3D

 27 28  0  0  0  0  0  0  0  0999 V2000
    3.5058   57.7408   21.1043 C   0  0  0  0  0  0  0  0  0  0  0  0
    1.3575   52.5301   21.2053 S   0  0  0  0  0  0  0  0  0  0  0  0
    7.0980   61.2936   22.1191 C   0  0  0  0  0  0  0  0  0  0  0  0
    1.6455   53.8837   22.3402 C   0  0  0  0  0  0  0  0  0  0  0  0
    2.0843   56.0135   24.0755 C   0  0  0  0  0  0  0  0  0  0  0  0
    5.2686   59.4005   22.0793 C   0  0  0  0  0  0  0  0  0  0  0  0
    5.6925   60.6840   20.0230 C   0  0  0  0  0  0  0  0  0  0  0  0
    1.2744   53.7856   23.6877 C   0  0  0  0  0  0  0  0  0  0  0  0
    3.4312   57.0753   20.0756 O   0  0  0  0  0  0  0  0  0  0  0  0
    6.9500   60.3038   19.3653 N   0  0  0  0  0  0  0  0  0  0  0  0
    2.4582   56.1357   22.7277 C   0  0  0  0  0  0  0  0  0  0  0  0
    6.9780   61.4673   23.5393 O   0  0  0  0  0  0  0  0  0  0  0  0
    2.0483   51.2538   22.0492 N   0  0  0  0  0  0  0  0  0  0  0  0
    6.6312   57.3065   21.4200 C   0  0  0  0  0  0  0  0  0  0  0  0
    4.6057   59.6248   19.7369 C   0  0  0  0  0  0  0  0  0  0  0  0
    1.7056   49.0615   23.2529 C   0  0  0  0  0  0  0  0  0  0  0  0
    2.3152   57.0778   24.9119 O   0  0  0  0  0  0  0  0  0  0  0  0
    2.2321   55.0644   21.8632 C   0  0  0  0  0  0  0  0  0  0  0  0
    3.0489   57.3586   22.3488 N   0  0  0  0  0  0  0  0  0  0  0  0
    1.2893   49.9915   22.1178 C   0  0  0  0  0  0  0  0  0  0  0  0
    1.4945   54.8503   24.5613 C   0  0  0  0  0  0  0  0  0  0  0  0
    3.9804   50.3703   20.6809 C   0  0  0  0  0  0  0  0  0  0  0  0
    6.3749   58.3676   22.1957 C   0  0  0  0  0  0  0  0  0  0  0  0
    4.7665   61.7604   21.9979 O   0  0  0  0  0  0  0  0  0  0  0  0
    5.7559   60.7859   21.5719 C   0  0  0  0  0  0  0  0  0  0  0  0
    4.0936   59.1473   21.1037 C   0  0  0  0  0  0  0  0  0  0  0  0
    3.5085   51.0613   21.9566 C   0  0  0  0  0  0  0  0  0  0  0  0
  1  9  2  0
  1 19  1  0
  1 26  1  0
  2  4  1  0
  2 13  1  0
  3 12  1  0
  3 25  1  0
  4  8  4  0
  4 18  4  0
  5 11  4  0
  5 17  1  0
  5 21  4  0
  6 23  1  0
  6 25  1  0
  6 26  1  0
  7 10  1  0
  7 15  1  0
  7 25  1  0
  8 21  4  0
 11 18  4  0
 11 19  1  0
 13 20  1  0
 13 27  1  0
 14 23  2  0
 15 26  1  0
 16 20  1  0
 22 27  1  0
 24 25  1  0
M  END
$$$$

     RDKit          2D

  1  0  0  0  0  0  0  0  0  0999 V2000
    0.0000    0.0000    0.0000 C   0  0  0  0  0  0  0  0  0  0  0  0
M  END
$$$$

     RDKit          3D

 28 29  0  0  0  0  0  0  0  0999 V2000
    1.4042   52.2588   22.6711 C   0  0  0  0  0  0  0  0  0  0  0  0
    5.4482   58.7386   22.5134 N   0  0  0  0  0  0  0  0  0  0  0  0
    3.8384   56.6956   22.6127 N   0  0  0  0  0  0  0  0  0  0  0  0
    2.4989   53.3576   23.0163 C   0  0  0  0  0  0  0  0  0  0  0  0
    2.9951   57.1035   20.5220 O   0  0  0  0  0  0  0  0  0  0  0  0
    5.9257   60.3280   20.2864 C   0  0  0  0  0  0  0  0  0  0  0  0
    3.0332   55.1451   24.3915 C   0  0  0  0  0  0  0  0  0  0  0  0
    7.6429   61.6712   21.5523 C   0  0  0  0  0  0  0  0  0  0  0  0
    6.3529   59.7431   22.5716 C   0  0  0  0  0  0  0  0  0  0  0  0
    3.5730   50.3775   21.7883 N   0  0  0  0  0  0  0  0  0  0  0  0
    1.3638   51.3978   23.8011 O   0  0  0  0  0  0  0  0  0  0  0  0
    4.9662   59.3088   20.1871 C   0  0  0  0  0  0  0  0  0  0  0  0
    1.4714   51.4855   21.4464 N   0  0  0  0  0  0  0  0  0  0  0  0
    7.7627   62.3764   20.3910 F   0  0  0  0  0  0  0  0  0  0  0  0
    3.8071   60.0560   18.1192 C   0  0  0  0  0  0  0  0  0  0  0  0
    2.5956   54.5865   22.1003 C   0  0  0  0  0  0  0  0  0  0  0  0
    2.1481   50.2043   21.5800 C   0  0  0  0  0  0  0  0  0  0  0  0
    2.2424   53.9291   24.3918 N   0  0  0  0  0  0  0  0  0  0  0  0
    2.6001   55.9607   25.4501 O   0  0  0  0  0  0  0  0  0  0  0  0
    1.5854   51.4592   18.9307 C   0  0  0  0  0  0  0  0  0  0  0  0
    4.7746   58.5325   21.3333 C   0  0  0  0  0  0  0  0  0  0  0  0
    3.7839   57.3889   21.4137 C   0  0  0  0  0  0  0  0  0  0  0  0
    7.0509   59.9177   23.8900 C   0  0  0  0  0  0  0  0  0  0  0  0
    0.0856   52.8514   22.6813 N   0  0  0  0  0  0  0  0  0  0  0  0
    1.8633   52.2135   20.2317 C   0  0  0  0  0  0  0  0  0  0  0  0
    2.7785   55.7917   23.0252 C   0  0  0  0  0  0  0  0  0  0  0  0
    4.2894   59.0807   18.9013 C   0  0  0  0  0  0  0  0  0  0  0  0
    6.6271   60.5657   21.4787 C   0  0  0  0  0  0  0  0  0  0  0  0
  1  4  1  0
  1 11  1  0
  1 13  1  0
  1 24  1  0
  2  9  4  0
  2 21  4  0
  3 22  1  0
  3 26  1  0
  4 16  1  0
  4 18  1  0
  5 22  2  0
  6 12  4  0
  6 28  4  0
  7 18  1  0
  7 19  1  0
  7 26  1  0
  8 14  1  0
  8 28  1  0
  9 23  1  0
  9 28  4  0
 10 17  1  0
 12 21  4  0
 12 27  1  0
 13 17  1  0
 13 25  1  0
 15 27  2  0
 16 26  1  0
 20 25  1  0
 21 22  1  0
M  END
$$$$

     RDKit          3D

 27 28  0  0  0  0  0  0  0  0999 V2000
    1.5231   50.4365   21.8967 N   0  0  0  0  0  0  0  0  0  0  0  0
    3.3979   55.5968   22.8607 C   0  0  0  0  0  0  0  0  0  0  0  0
    5.8676   62.0219   22.3233 C   0  0  0  0  0  0  0  0  0  0  0  0
    5.3894   58.4491   21.2892 C   0  0  0  0  0  0  0  0  0  0  0  0
    4.1032   56.7045   20.1972 O   0  0  0  0  0  0  0  0  0  0  0  0
    2.5122   54.2494   24.6975 C   0  0  0  0  0  0  0  0  0  0  0  0
    2.7313   54.7852   21.9460 C   0  0  0  0  0  0  0  0  0  0  0  0
    5.1144   59.5393   22.3376 C   0  0  0  0  0  0  0  0  0  0  0  0
    2.1621   51.6367   20.9161 S   0  0  0  0  0  0  0  0  0  0  0  0
    5.9180   60.5315   20.2749 C   0  0  0  0  0  0  0  0  0  0  0  0
    1.9768   53.7028   22.4092 C   0  0  0  0  0  0  0  0  0  0  0  0
    3.2804   55.3159   24.2337 C   0  0  0  0  0  0  0  0  0  0  0  0
    5.5619   62.2755   23.4845 O   0  0  0  0  0  0  0  0  0  0  0  0
   -0.5257   49.2154   22.7185 C   0  0  0  0  0  0  0  0  0  0  0  0
    4.4646   57.2111   21.2577 C   0  0  0  0  0  0  0  0  0  0  0  0
    2.4442   49.4263   22.4446 C   0  0  0  0  0  0  0  0  0  0  0  0
    6.0728   60.6207   21.8007 C   0  0  0  0  0  0  0  0  0  0  0  0
    7.2435   60.6995   19.5388 C   0  0  0  0  0  0  0  0  0  0  0  0
    2.8172   48.3096   21.4744 C   0  0  0  0  0  0  0  0  0  0  0  0
    0.1886   49.9070   21.5617 C   0  0  0  0  0  0  0  0  0  0  0  0
    5.3245   59.2156   20.0256 N   0  0  0  0  0  0  0  0  0  0  0  0
    1.2861   52.9251   21.5138 O   0  0  0  0  0  0  0  0  0  0  0  0
    3.9439   56.1316   25.1180 O   0  0  0  0  0  0  0  0  0  0  0  0
    1.8503   53.4419   23.7756 C   0  0  0  0  0  0  0  0  0  0  0  0
    4.1918   56.7099   22.5162 N   0  0  0  0  0  0  0  0  0  0  0  0
    3.0944   60.0484   23.8035 C   0  0  0  0  0  0  0  0  0  0  0  0
    3.6287   59.9826   22.3775 C   0  0  0  0  0  0  0  0  0  0  0  0
  1  9  1  0
  1 16  1  0
  1 20  1  0
  2  7  4  0
  2 12  4  0
  2 25  1  0
  3 13  2  0
  3 17  1  0
  4  8  1  0
  4 15  1  0
  4 21  1  0
  5 15  2  0
  6 12  4  0
  6 24  4  0
  7 11  4  0
  8 17  1  0
  8 27  1  0
  9 22  1  0
 10 17  1  0
 10 18  1  0
 10 21  1  0
 11 22  1  0
 11 24  4  0
 12 23  1  0
 14 20  1  0
 15 25  1  0
 16 19  1  0
 26 27  1  0
M  END
$$$$

     RDKit          3D

 30 31  0  0  0  0  0  0  0  0999 V2000
    3.3844   57.3181   21.4433 C   0  0  0  0  0  0  0  0  0  0  0  0
    0.9904   52.3849   21.4701 C   0  0  0  0  0  0  0  0  0  0  0  0
    4.5257   59.1101   20.1438 N   0  0  0  0  0  0  0  0  0  0  0  0
    1.8845   54.7176   22.0443 C   0  0  0  0  0  0  0  0  0  0  0  0
    5.2993   58.7399   22.4035 C   0  0  0  0  0  0  0  0  0  0  0  0
    5.7596   63.1182   21.7418 O   0  0  0  0  0  0  0  0  0  0  0  0
    2.0833   55.7734   22.9342 C   0  0  0  0  0  0  0  0  0  0  0  0
    5.9693   58.8464   20.1314 C   0  0  0  0  0  0  0  0  0  0  0  0
    6.6011   60.8485   21.6056 C   0  0  0  0  0  0  0  0  0  0  0  0
    2.0012   51.3419   21.4637 N   0  0  0  0  0  0  0  0  0  0  0  0
    5.4664   61.8106   21.2537 C   0  0  0  0  0  0  0  0  0  0  0  0
    1.5846   55.6651   24.2399 C   0  0  0  0  0  0  0  0  0  0  0  0
    1.2015   53.5471   22.4421 C   0  0  0  0  0  0  0  0  0  0  0  0
    4.0442   58.7213   21.5033 C   0  0  0  0  0  0  0  0  0  0  0  0
    1.8595   50.3272   22.4854 C   0  0  0  0  0  0  0  0  0  0  0  0
    5.0888   59.3921   23.7758 C   0  0  0  0  0  0  0  0  0  0  0  0
    6.6784   59.4612   18.9355 C   0  0  0  0  0  0  0  0  0  0  0  0
    0.9091   54.5264   24.6627 C   0  0  0  0  0  0  0  0  0  0  0  0
    6.4014   59.3353   21.5080 C   0  0  0  0  0  0  0  0  0  0  0  0
    3.4421   56.6364   20.4215 O   0  0  0  0  0  0  0  0  0  0  0  0
    2.7637   56.9677   22.6228 N   0  0  0  0  0  0  0  0  0  0  0  0
    4.3216   50.6951   20.7906 C   0  0  0  0  0  0  0  0  0  0  0  0
    0.7236   53.4740   23.7654 C   0  0  0  0  0  0  0  0  0  0  0  0
    1.7889   56.7159   25.1009 O   0  0  0  0  0  0  0  0  0  0  0  0
    3.3620   51.8137   21.1905 C   0  0  0  0  0  0  0  0  0  0  0  0
    0.9041   52.8899   20.1549 O   0  0  0  0  0  0  0  0  0  0  0  0
    2.4148   50.7362   23.7585 N   0  0  0  0  0  0  0  0  0  0  0  0
   -0.3051   51.8420   21.6475 O   0  0  0  0  0  0  0  0  0  0  0  0
    7.6962   61.3050   21.9621 O   0  0  0  0  0  0  0  0  0  0  0  0
    6.3106   59.2734   24.6770 C   0  0  0  0  0  0  0  0  0  0  0  0
  1 14  1  0
  1 20  2  0
  1 21  1  0
  2 10  1  0
  2 13  1  0
  2 26  1  0
  2 28  1  0
  3  8  1  0
  3 14  1  0
  4  7  4  0
  4 13  4  0
  5 14  1  0
  5 16  1  0
  5 19  1  0
  6 11  1  0
  7 12  4  0
  7 21  1  0
  8 17  1  0
  8 19  1  0
  9 11  1  0
  9 19  1  0
  9 29  2  0
 10 15  1  0
 10 25  1  0
 12 18  4  0
 12 24  1  0
 13 23  4  0
 15 27  1  0
 16 30  1  0
 18 23  4  0
 22 25  1  0
M  END
$$$$

     RDKit          2D

  1  0  0  0  0  0  0  0  0  0999 V2000
    0.0000    0.0000    0.0000 C   0  0  0  0  0  0  0  0  0  0  0  0
M  END
$$$$

     RDKit          2D

  1  0  0  0  0  0  0  0  0  0999 V2000
    0.0000    0.0000    0.0000 C   0  0  0  0  0  0  0  0  0  0  0  0
M  END
$$$$

     RDKit          2D

  1  0  0  0  0  0  0  0  0  0999 V2000
    0.0000    0.0000    0.0000 C   0  0  0  0  0  0  0  0  0  0  0  0
M  END
$$$$

     RDKit          2D

  1  0  0  0  0  0  0  0  0  0999 V2000
    0.0000    0.0000    0.0000 C   0  0  0  0  0  0  0  0  0  0  0  0
M  END
$$$$

     RDKit          3D

 27 28  0  0  0  0  0  0  0  0999 V2000
    5.4213   56.2710   23.3736 C   0  0  0  0  0  0  0  0  0  0  0  0
    2.0222   52.8313   21.4874 N   0  0  0  0  0  0  0  0  0  0  0  0
    4.2699   58.6122   20.6344 C   0  0  0  0  0  0  0  0  0  0  0  0
    4.3194   56.1954   24.1902 N   0  0  0  0  0  0  0  0  0  0  0  0
    2.2850   55.1223   24.9329 C   0  0  0  0  0  0  0  0  0  0  0  0
    4.4472   61.0533   20.6980 O   0  0  0  0  0  0  0  0  0  0  0  0
    3.5183   54.2153   22.8477 C   0  0  0  0  0  0  0  0  0  0  0  0
    0.7020   52.4794   20.9842 C   0  0  0  0  0  0  0  0  0  0  0  0
    1.1191   54.3884   24.2791 C   0  0  0  0  0  0  0  0  0  0  0  0
    3.6838   60.0855   18.6456 C   0  0  0  0  0  0  0  0  0  0  0  0
    4.1742   58.2305   22.1423 C   0  0  1  0  0  0  0  0  0  0  0  0
    2.6912   54.4286   26.0988 O   0  0  0  0  0  0  0  0  0  0  0  0
    3.1018   52.2515   20.6732 C   0  0  0  0  0  0  0  0  0  0  0  0
    1.2602   55.4241   20.1788 O   0  0  0  0  0  0  0  0  0  0  0  0
    4.8395   60.2086   23.7182 C   0  0  0  0  0  0  0  0  0  0  0  0
    2.2230   54.2227   21.9735 C   0  0  2  0  0  0  0  0  0  0  0  0
    5.4993   57.5088   22.4487 C   0  0  2  0  0  0  0  0  0  0  0  0
    3.4597   55.2473   23.9582 C   0  0  0  0  0  0  0  0  0  0  0  0
    6.3321   55.4457   23.4248 O   0  0  0  0  0  0  0  0  0  0  0  0
    6.7825   59.3087   20.3269 C   0  0  0  0  0  0  0  0  0  0  0  0
    1.0355   54.7951   22.8152 C   0  0  0  0  0  0  0  0  0  0  0  0
    3.2045   52.7140   19.2233 C   0  0  0  0  0  0  0  0  0  0  0  0
    5.9811   57.0988   21.1048 N   0  0  0  0  0  0  0  0  0  0  0  0
    3.7510   59.2994   23.1679 C   0  0  0  0  0  0  0  0  0  0  0  0
    2.4990   55.1609   20.9040 O   0  0  0  0  0  0  0  0  0  0  0  0
    3.7092   59.9631   20.1677 C   0  0  0  0  0  0  0  0  0  0  0  0
    5.7023   58.2347   20.2175 C   0  0  1  0  0  0  0  0  0  0  0  0
  1  4  1  0
 17  1  1  1
  1 19  2  0
  2  8  1  0
  2 13  1  0
  2 16  1  0
  3 11  1  0
  3 26  1  0
  3 27  1  0
  4 18  2  3
  5  9  1  0
  5 12  1  0
  5 18  1  0
  6 26  1  0
  7 16  1  0
  7 18  1  0
  9 21  1  0
 10 26  1  0
 11 17  1  0
 11 24  1  1
 13 22  1  0
 14 25  1  0
 15 24  1  0
 16 21  1  0
 16 25  1  6
 17 23  1  0
 27 20  1  6
 23 27  1  0
M  END
$$$$

     RDKit          2D

  1  0  0  0  0  0  0  0  0  0999 V2000
    0.0000    0.0000    0.0000 C   0  0  0  0  0  0  0  0  0  0  0  0
M  END
$$$$

     RDKit          3D

 29 30  0  0  0  0  0  0  0  0999 V2000
    4.5245   56.6458   20.4638 O   0  0  0  0  0  0  0  0  0  0  0  0
    4.0922   58.9897   20.8029 C   0  0  0  0  0  0  0  0  0  0  0  0
    2.6230   49.5827   21.9291 C   0  0  0  0  0  0  0  0  0  0  0  0
    2.9680   55.9175   22.7369 C   0  0  0  0  0  0  0  0  0  0  0  0
    2.6442   54.8359   21.9149 C   0  0  0  0  0  0  0  0  0  0  0  0
    3.0315   57.2272   22.2104 N   0  0  0  0  0  0  0  0  0  0  0  0
    3.8045   60.4375   22.9564 C   0  0  0  0  0  0  0  0  0  0  0  0
    6.7247   59.7528   22.4657 O   0  0  0  0  0  0  0  0  0  0  0  0
   -0.2876   51.4404   23.3171 C   0  0  0  0  0  0  0  0  0  0  0  0
    3.2567   54.3755   24.6098 C   0  0  0  0  0  0  0  0  0  0  0  0
    2.2260   52.2230   21.3956 S   0  0  0  0  0  4  0  0  0  0  0  0
    7.0994   60.1249   18.9922 C   0  0  0  0  0  0  0  0  0  0  0  0
    6.2810   59.5059   20.1192 C   0  0  0  0  0  0  0  0  0  0  0  0
    1.8140   50.7873   22.1638 N   0  0  0  0  0  0  0  0  0  0  0  0
    4.4740   60.2646   21.5820 C   0  0  0  0  0  0  0  0  0  0  0  0
    3.2678   55.6683   24.0867 C   0  0  0  0  0  0  0  0  0  0  0  0
    1.0344   52.6561   20.4125 O   0  0  0  0  0  0  0  0  0  0  0  0
    4.4644   59.8436   24.1880 C   0  0  0  0  0  0  0  0  0  0  0  0
    6.3002   62.7860   22.7409 Cl  0  0  0  0  0  0  0  0  0  0  0  0
    6.0152   60.3830   21.3888 C   0  0  0  0  0  0  0  0  0  0  0  0
    2.3112   48.8750   20.6152 C   0  0  0  0  0  0  0  0  0  0  0  0
    2.9377   53.3039   23.7766 C   0  0  0  0  0  0  0  0  0  0  0  0
    3.4574   51.9767   20.4016 O   0  0  0  0  0  0  0  0  0  0  0  0
    2.6251   53.5452   22.4413 C   0  0  0  0  0  0  0  0  0  0  0  0
    4.9539   59.1469   19.5970 N   0  0  0  0  0  0  0  0  0  0  0  0
    6.4933   61.8414   21.2351 C   0  0  0  0  0  0  0  0  0  0  0  0
    0.4081   50.4368   22.4047 C   0  0  0  0  0  0  0  0  0  0  0  0
    3.5666   56.7398   24.8861 O   0  0  0  0  0  0  0  0  0  0  0  0
    4.2651   57.5915   21.5055 C   0  0  0  0  0  0  0  0  0  0  0  0
  1 29  1  0
  2 15  1  0
  2 25  1  0
  2 29  1  0
  3 14  1  0
  3 21  1  0
  4  5  4  0
  4  6  1  0
  4 16  4  0
  5 24  4  0
  6 29  1  0
  7 15  1  0
  7 18  1  0
  8 20  1  0
  9 27  1  0
 10 16  4  0
 10 22  4  0
 11 14  1  0
 11 17  1  0
 11 23  1  0
 11 24  1  0
 12 13  1  0
 13 20  1  0
 13 25  1  0
 14 27  1  0
 15 20  1  0
 16 28  1  0
 19 26  1  0
 20 26  1  0
 22 24  4  0
M  END
$$$$

     RDKit          2D

  1  0  0  0  0  0  0  0  0  0999 V2000
    0.0000    0.0000    0.0000 C   0  0  0  0  0  0  0  0  0  0  0  0
M  END
$$$$

     RDKit          3D

 28 29  0  0  0  0  0  0  0  0999 V2000
    5.4130   56.5350   23.6477 C   0  0  0  0  0  0  0  0  0  0  0  0
    4.9900   57.7941   18.8864 C   0  0  0  0  0  0  0  0  0  0  0  0
    2.6750   54.3660   22.0634 C   0  0  1  0  0  0  0  0  0  0  0  0
    5.1242   60.1078   20.6743 C   0  0  0  0  0  0  0  0  0  0  0  0
    5.1537   56.8058   21.1762 N   0  0  0  0  0  0  0  0  0  0  0  0
    2.6786   51.9865   21.0635 C   0  0  0  0  0  0  0  0  0  0  0  0
    0.6016   53.8533   19.5403 C   0  0  0  0  0  0  0  0  0  0  0  0
    4.2574   56.3655   24.3721 N   0  0  0  0  0  0  0  0  0  0  0  0
    4.1352   59.0078   21.0363 C   0  0  0  0  0  0  0  0  0  0  0  0
    1.9908   56.0160   25.8773 O   0  0  0  0  0  0  0  0  0  0  0  0
    3.8435   54.2440   23.0752 C   0  0  0  0  0  0  0  0  0  0  0  0
    5.5963   60.2114   23.9515 C   0  0  0  0  0  0  0  0  0  0  0  0
    2.1121   54.0077   19.5479 C   0  0  0  0  0  0  0  0  0  0  0  0
    1.1774   55.1169   23.9060 N   0  0  0  0  0  0  0  0  0  0  0  0
    4.2804   53.6426   20.4015 O   0  0  0  0  0  0  0  0  0  0  0  0
    2.2461   55.0509   24.8925 C   0  0  0  0  0  0  0  0  0  0  0  0
    4.2375   59.6389   23.5785 C   0  0  0  0  0  0  0  0  0  0  0  0
    2.9890   51.0647   19.8871 C   0  0  0  0  0  0  0  0  0  0  0  0
    5.5312   62.3576   19.8314 O   0  0  0  0  0  0  0  0  0  0  0  0
    2.8958   53.4922   20.7847 C   0  0  1  0  0  0  0  0  0  0  0  0
    6.3462   59.9441   20.6985 O   0  0  0  0  0  0  0  0  0  0  0  0
    6.4398   55.9032   23.8859 O   0  0  0  0  0  0  0  0  0  0  0  0
    5.3459   57.5368   22.4729 C   0  0  1  0  0  0  0  0  0  0  0  0
    4.3857   57.6938   20.2810 C   0  0  1  0  0  0  0  0  0  0  0  0
    3.5679   55.2862   24.1386 C   0  0  0  0  0  0  0  0  0  0  0  0
    4.5355   61.4639   20.3020 C   0  0  0  0  0  0  0  0  0  0  0  0
    1.3556   54.1201   22.8383 C   0  0  0  0  0  0  0  0  0  0  0  0
    4.1981   58.5474   22.4985 C   0  0  2  0  0  0  0  0  0  0  0  0
  1  8  1  0
  1 22  2  0
 23  1  1  1
 24  2  1  1
  3 11  1  1
  3 20  1  0
  3 27  1  0
  4  9  1  0
  4 21  2  0
  4 26  1  0
  5 23  1  0
  5 24  1  0
  6 18  1  0
  6 20  1  0
  7 13  1  0
  8 25  2  3
  9 24  1  0
  9 28  1  0
 10 16  1  0
 11 25  1  0
 12 17  1  0
 13 20  1  0
 14 16  1  0
 14 27  1  0
 20 15  1  6
 16 25  1  0
 28 17  1  1
 19 26  1  0
 23 28  1  0
M  END
$$$$

     RDKit          3D

 29 30  0  0  0  0  0  0  0  0999 V2000
    4.0171   57.0374   21.8305 C   0  0  0  0  0  0  0  0  0  0  0  0
    7.8444   62.5929   21.4515 O   0  0  0  0  0  0  0  0  0  0  0  0
    0.3898   52.7545   21.3302 S   0  0  0  0  0  0  0  0  0  0  0  0
    1.5819   50.4145   21.2590 C   0  0  0  0  0  0  0  0  0  0  0  0
    7.0383   63.7024   19.1474 O   0  0  0  0  0  0  0  0  0  0  0  0
    2.5804   55.0462   24.6227 C   0  0  0  0  0  0  0  0  0  0  0  0
    4.1200   59.5743   22.2706 C   0  0  0  0  0  0  0  0  0  0  0  0
    1.0862   53.2817   23.9734 C   0  0  0  0  0  0  0  0  0  0  0  0
    5.7243   58.4672   20.7589 N   0  0  0  0  0  0  0  0  0  0  0  0
    3.7291   56.5769   20.7272 O   0  0  0  0  0  0  0  0  0  0  0  0
    2.7520   55.4223   23.2814 C   0  0  0  0  0  0  0  0  0  0  0  0
    4.9316   58.2844   21.9824 C   0  0  0  0  0  0  0  0  0  0  0  0
    1.2420   53.6410   22.6285 C   0  0  0  0  0  0  0  0  0  0  0  0
    1.7556   53.9833   24.9761 C   0  0  0  0  0  0  0  0  0  0  0  0
    3.9879   50.2103   21.0573 C   0  0  0  0  0  0  0  0  0  0  0  0
    3.7555   59.7696   23.7606 C   0  0  0  0  0  0  0  0  0  0  0  0
    6.8752   62.0400   20.9173 C   0  0  0  0  0  0  0  0  0  0  0  0
    4.9291   59.9617   24.7104 C   0  0  0  0  0  0  0  0  0  0  0  0
    2.8787   50.6169   21.9083 N   0  0  0  0  0  0  0  0  0  0  0  0
    1.1395   48.9585   21.3914 C   0  0  0  0  0  0  0  0  0  0  0  0
    3.2537   55.7578   25.5850 O   0  0  0  0  0  0  0  0  0  0  0  0
    0.5725   51.1991   21.9101 O   0  0  0  0  0  0  0  0  0  0  0  0
    6.3046   60.7287   21.4618 C   0  0  0  0  0  0  0  0  0  0  0  0
    7.6123   59.4465   19.7104 C   0  0  0  0  0  0  0  0  0  0  0  0
    2.0723   54.7180   22.2876 C   0  0  0  0  0  0  0  0  0  0  0  0
    3.6118   56.5141   23.0437 N   0  0  0  0  0  0  0  0  0  0  0  0
    6.2294   62.6607   19.6814 C   0  0  0  0  0  0  0  0  0  0  0  0
    6.6016   59.5171   20.5890 C   0  0  0  0  0  0  0  0  0  0  0  0
    4.7837   60.8520   21.6848 C   0  0  0  0  0  0  0  0  0  0  0  0
  1 10  2  0
  1 12  1  0
  1 26  1  0
  2 17  2  0
  3 13  1  0
  3 22  1  0
  4 19  1  0
  4 20  1  0
  4 22  1  0
  5 27  1  0
  6 11  4  0
  6 14  4  0
  6 21  1  0
  7 12  1  0
  7 16  1  0
  7 29  1  0
  8 13  4  0
  8 14  4  0
  9 12  1  0
  9 28  1  0
 11 25  4  0
 11 26  1  0
 13 25  4  0
 15 19  1  0
 16 18  1  0
 17 23  1  0
 17 27  1  0
 23 28  1  0
 23 29  1  0
 24 28  2  0
M  END
$$$$

     RDKit          2D

  1  0  0  0  0  0  0  0  0  0999 V2000
    0.0000    0.0000    0.0000 C   0  0  0  0  0  0  0  0  0  0  0  0
M  END
$$$$

     RDKit          3D

 28 30  0  0  0  0  0  0  0  0999 V2000
    6.8567   58.1042   21.2944 N   0  0  0  0  0  0  0  0  0  0  0  0
    1.2172   53.9669   24.3303 C   0  0  0  0  0  0  0  0  0  0  0  0
    4.8574   57.0641   22.3772 C   0  0  0  0  0  0  0  0  0  0  0  0
    3.7502   59.6559   22.4167 C   0  0  0  0  0  0  0  0  0  0  0  0
    4.4419   61.9173   20.0569 N   0  0  0  0  0  0  0  0  0  0  0  0
    1.8764   52.0047   21.0860 N   0  0  0  0  0  0  0  0  0  0  0  0
    2.5282   55.9542   24.7527 C   0  0  0  0  0  0  0  0  0  0  0  0
    1.4209   54.1478   22.9668 C   0  0  0  0  0  0  0  0  0  0  0  0
    5.0287   59.4386   21.9267 C   0  0  0  0  0  0  0  0  0  0  0  0
    2.7386   56.1368   23.3760 C   0  0  0  0  0  0  0  0  0  0  0  0
    7.3028   59.5102   21.3337 C   0  0  0  0  0  0  0  0  0  0  0  0
   -0.0682   53.8164   20.7253 O   0  0  0  0  0  0  0  0  0  0  0  0
    3.0211   58.5606   22.8930 C   0  0  0  0  0  0  0  0  0  0  0  0
    2.7158   51.1184   21.9045 C   0  0  0  0  0  0  0  0  0  0  0  0
    0.7657   53.0167   21.8349 S   0  0  0  0  0  4  0  0  0  0  0  0
    3.0562   51.3255   18.9590 C   0  0  0  0  0  0  0  0  0  0  0  0
    5.5797   58.1583   21.9138 C   0  0  0  0  0  0  0  0  0  0  0  0
    6.2347   61.5221   22.2592 O   0  0  0  0  0  0  0  0  0  0  0  0
    1.7717   54.8780   25.2265 C   0  0  0  0  0  0  0  0  0  0  0  0
    2.1656   55.2214   22.4820 C   0  0  0  0  0  0  0  0  0  0  0  0
    8.2787   59.7618   20.1923 C   0  0  0  0  0  0  0  0  0  0  0  0
    5.5837   60.9811   19.9753 C   0  0  0  0  0  0  0  0  0  0  0  0
    3.5562   57.2512   22.8809 C   0  0  0  0  0  0  0  0  0  0  0  0
    2.5240   52.4492   19.8421 C   0  0  0  0  0  0  0  0  0  0  0  0
   -0.3369   52.0912   22.5378 O   0  0  0  0  0  0  0  0  0  0  0  0
    4.0239   51.7291   22.3944 C   0  0  0  0  0  0  0  0  0  0  0  0
    6.0172   60.4238   21.3549 C   0  0  0  0  0  0  0  0  0  0  0  0
    5.4762   55.8409   22.3470 O   0  0  0  0  0  0  0  0  0  0  0  0
  1 11  1  0
  1 17  1  0
  2  8  4  0
  2 19  4  0
  3 17  4  0
  3 23  4  0
  3 28  1  0
  4  9  4  0
  4 13  4  0
  5 22  1  0
  6 14  1  0
  6 15  1  0
  6 24  1  0
  7 10  4  0
  7 19  4  0
  8 15  1  0
  8 20  4  0
  9 17  4  0
  9 27  1  0
 10 20  4  0
 10 23  1  0
 11 21  1  0
 11 27  1  0
 12 15  1  0
 13 23  4  0
 14 26  1  0
 15 25  1  0
 16 24  1  0
 18 27  1  0
 22 27  1  0
M  END
$$$$

     RDKit          2D

  1  0  0  0  0  0  0  0  0  0999 V2000
    0.0000    0.0000    0.0000 C   0  0  0  0  0  0  0  0  0  0  0  0
M  END
$$$$

     RDKit          3D

 25 26  0  0  0  0  0  0  0  0999 V2000
    4.7994   56.3271   22.6610 C   0  0  0  0  0  0  0  0  0  0  0  0
    3.5634   51.0038   20.1503 C   0  0  0  0  0  0  0  0  0  0  0  0
    0.9089   53.9150   24.5489 C   0  0  0  0  0  0  0  0  0  0  0  0
    2.0314   55.1514   22.8003 C   0  0  0  0  0  0  0  0  0  0  0  0
    6.5097   57.2591   21.1117 N   0  0  0  0  0  0  0  0  0  0  0  0
    4.9823   58.8136   22.0292 C   0  0  0  0  0  0  0  0  0  0  0  0
    6.0500   59.6120   21.2880 C   0  0  1  0  0  0  0  0  0  0  0  0
    5.9541   62.0505   20.7448 C   0  0  0  0  0  0  0  0  0  0  0  0
    3.0941   50.3698   18.8483 C   0  0  0  0  0  0  0  0  0  0  0  0
    5.0329   55.1568   22.3773 O   0  0  0  0  0  0  0  0  0  0  0  0
    1.6545   54.5898   25.5191 C   0  0  0  0  0  0  0  0  0  0  0  0
    2.7921   55.7944   23.7773 C   0  0  0  0  0  0  0  0  0  0  0  0
    1.1042   54.1856   23.1905 C   0  0  0  0  0  0  0  0  0  0  0  0
    1.4408   52.1581   20.6590 N   0  0  0  0  0  0  0  0  0  0  0  0
    8.1931   58.8154   20.1558 C   0  0  0  0  0  0  0  0  0  0  0  0
    3.7212   56.7796   23.4251 O   0  0  0  0  0  0  0  0  0  0  0  0
    5.7135   57.5135   22.3335 C   0  0  0  0  0  0  0  0  0  0  0  0
    5.3548   63.4165   19.8989 Cl  0  0  0  0  0  0  0  0  0  0  0  0
    6.7167   58.5365   20.4129 C   0  0  0  0  0  0  0  0  0  0  0  0
    4.5268   60.5239   19.6083 O   0  0  0  0  0  0  0  0  0  0  0  0
    0.9496   53.4809   21.0052 O   0  0  0  0  0  0  0  0  0  0  0  0
    2.8786   52.3375   20.4554 C   0  0  0  0  0  0  0  0  0  0  0  0
    2.6012   55.5367   25.1332 C   0  0  0  0  0  0  0  0  0  0  0  0
    0.3201   53.4682   22.3164 O   0  0  0  0  0  0  0  0  0  0  0  0
    5.5141   60.8035   20.5349 C   0  0  0  0  0  0  0  0  0  0  0  0
  1 10  2  0
  1 16  1  0
  1 17  1  0
  2  9  1  0
  2 22  1  0
  3 11  4  0
  3 13  4  0
  4 12  4  0
  4 13  4  0
  5 17  1  0
  5 19  1  0
  7  6  1  1
  6 17  1  0
  7 19  1  0
  7 25  1  0
  8 18  1  0
  8 25  2  3
 11 23  4  0
 12 16  1  0
 12 23  4  0
 13 24  1  0
 14 21  1  0
 14 22  1  0
 15 19  1  0
 20 25  1  0
 21 24  1  0
M  END
$$$$

     RDKit          3D

 29 31  0  0  0  0  0  0  0  0999 V2000
    1.5323   54.1266   22.4360 C   0  0  0  0  0  0  0  0  0  0  0  0
    3.9002   57.8332   22.0016 C   0  0  0  0  0  0  0  0  0  0  0  0
    3.3516   55.5693   22.9692 C   0  0  0  0  0  0  0  0  0  0  0  0
    5.0967   60.0168   21.3081 C   0  0  0  0  0  0  0  0  0  0  0  0
    2.0247   53.1397   23.2565 C   0  0  0  0  0  0  0  0  0  0  0  0
    7.1842   59.1578   22.9362 C   0  0  0  0  0  0  0  0  0  0  0  0
    5.6293   62.9941   20.8976 O   0  0  0  0  0  0  0  0  0  0  0  0
    1.6550   50.6794   22.4802 C   0  0  0  0  0  0  0  0  0  0  0  0
    5.0629   58.8153   22.0271 C   0  0  0  0  0  0  0  0  0  0  0  0
    2.2257   50.0623   20.0811 C   0  0  0  0  0  0  0  0  0  0  0  0
    5.0200   54.8056   24.6213 N   0  0  0  0  0  0  0  0  0  0  0  0
    6.2707   60.7827   21.4587 C   0  0  0  0  0  0  0  0  0  0  0  0
    4.1422   56.7217   22.7881 N   0  0  0  0  0  0  0  0  0  0  0  0
   -0.0126   52.4692   22.4376 O   0  0  0  0  0  0  0  0  0  0  0  0
    0.3918   53.7479   21.7929 O   0  0  0  0  0  0  0  0  0  0  0  0
    3.9673   60.4874   20.4233 C   0  0  0  0  0  0  0  0  0  0  0  0
    2.1789   50.9479   21.1302 N   0  0  0  0  0  0  0  0  0  0  0  0
    3.1759   53.3570   23.9957 C   0  0  0  0  0  0  0  0  0  0  0  0
    7.5763   62.2269   20.0322 N   0  0  0  0  0  0  0  0  0  0  0  0
    6.0907   58.3827   22.8325 N   0  0  0  0  0  0  0  0  0  0  0  0
    1.1297   51.9630   23.1813 C   0  0  0  0  0  0  0  0  0  0  0  0
    2.0292   48.7429   20.0749 C   0  0  0  0  0  0  0  0  0  0  0  0
    2.8655   61.1901   21.2057 C   0  0  0  0  0  0  0  0  0  0  0  0
    7.3227   60.3550   22.2747 C   0  0  0  0  0  0  0  0  0  0  0  0
    2.8833   58.0390   21.3553 O   0  0  0  0  0  0  0  0  0  0  0  0
    2.7340   49.9883   23.3157 C   0  0  0  0  0  0  0  0  0  0  0  0
    3.8187   54.6006   23.9021 C   0  0  0  0  0  0  0  0  0  0  0  0
    6.4451   62.0926   20.7871 C   0  0  0  0  0  0  0  0  0  0  0  0
    2.1720   55.3378   22.2582 C   0  0  0  0  0  0  0  0  0  0  0  0
  1  5  4  0
  1 15  1  0
  1 29  4  0
  2  9  1  0
  2 13  1  0
  2 25  2  0
  3 13  1  0
  3 27  4  0
  3 29  4  0
  4  9  4  0
  4 12  4  0
  4 16  1  0
  5 18  4  0
  5 21  1  0
  6 20  4  0
  6 24  4  0
  7 28  2  0
  8 17  1  0
  8 21  1  0
  8 26  1  0
  9 20  4  0
 10 17  1  0
 10 22  2  0
 11 27  1  0
 12 24  4  0
 12 28  1  0
 14 15  1  0
 14 21  1  0
 16 23  1  0
 18 27  4  0
 19 28  1  0
M  END
$$$$

     RDKit          2D

  1  0  0  0  0  0  0  0  0  0999 V2000
    0.0000    0.0000    0.0000 C   0  0  0  0  0  0  0  0  0  0  0  0
M  END
$$$$

     RDKit          2D

  1  0  0  0  0  0  0  0  0  0999 V2000
    0.0000    0.0000    0.0000 C   0  0  0  0  0  0  0  0  0  0  0  0
M  END
$$$$

     RDKit          2D

  1  0  0  0  0  0  0  0  0  0999 V2000
    0.0000    0.0000    0.0000 C   0  0  0  0  0  0  0  0  0  0  0  0
M  END
$$$$

     RDKit          3D

 28 29  0  0  0  0  0  0  0  0999 V2000
    2.0001   55.6011   24.0444 C   0  0  0  0  0  0  0  0  0  0  0  0
    5.0199   59.0709   22.6361 C   0  0  0  0  0  0  0  0  0  0  0  0
    7.2489   60.8836   22.2148 O   0  0  0  0  0  0  0  0  0  0  0  0
    0.8341   53.7181   22.4001 C   0  0  0  0  0  0  0  0  0  0  0  0
    4.6241   56.7024   23.2811 N   0  0  0  0  0  0  0  0  0  0  0  0
    5.6048   61.7816   19.3230 O   0  0  0  0  0  0  0  0  0  0  0  0
    0.6790   55.2330   24.2683 C   0  0  0  0  0  0  0  0  0  0  0  0
    5.4684   57.3288   21.1381 N   0  0  0  0  0  0  0  0  0  0  0  0
    2.7672   55.0813   22.9789 C   0  0  0  0  0  0  0  0  0  0  0  0
    6.3825   60.8029   21.3528 C   0  0  0  0  0  0  0  0  0  0  0  0
    4.5399   57.6839   22.1998 C   0  0  0  0  0  0  0  0  0  0  0  0
    0.1733   52.8132   21.6032 O   0  0  0  0  0  0  0  0  0  0  0  0
    3.5222   51.2145   20.0510 C   0  0  0  0  0  0  0  0  0  0  0  0
    0.0875   54.2958   23.4331 C   0  0  0  0  0  0  0  0  0  0  0  0
    0.3773   51.5137   22.2319 O   0  0  0  0  0  0  0  0  0  0  0  0
    3.9875   54.0967   20.5624 N   0  0  0  0  0  0  0  0  0  0  0  0
    4.4025   61.1768   23.9576 C   0  0  0  0  0  0  0  0  0  0  0  0
    5.3109   59.7361   21.2803 C   0  0  0  0  0  0  0  0  0  0  0  0
    2.5954   52.2277   20.5249 N   0  0  0  0  0  0  0  0  0  0  0  0
    2.5507   56.4996   24.9197 O   0  0  0  0  0  0  0  0  0  0  0  0
    4.1490   55.4395   22.8225 N   0  0  0  0  0  0  0  0  0  0  0  0
    5.6670   58.5596   20.3467 C   0  0  0  0  0  0  0  0  0  0  0  0
    4.3231   50.6333   21.2034 C   0  0  0  0  0  0  0  0  0  0  0  0
    2.1725   54.0887   22.1563 C   0  0  0  0  0  0  0  0  0  0  0  0
    2.9620   53.4536   21.0320 C   0  0  0  0  0  0  0  0  0  0  0  0
    7.0661   58.5445   19.7363 C   0  0  0  0  0  0  0  0  0  0  0  0
    3.9746   59.7901   23.5037 C   0  0  0  0  0  0  0  0  0  0  0  0
    6.3863   61.8439   20.2577 C   0  0  0  0  0  0  0  0  0  0  0  0
  1  7  4  0
  1  9  4  0
  1 20  1  0
  2 11  1  0
  2 18  1  0
  2 27  1  0
  3 10  2  0
  4 12  1  0
  4 14  4  0
  4 24  4  0
  5 11  1  0
  5 21  1  0
  6 28  2  0
  7 14  4  0
  8 11  1  0
  8 22  1  0
  9 21  1  0
  9 24  4  0
 10 18  1  0
 10 28  1  0
 12 15  1  0
 13 19  1  0
 13 23  1  0
 16 25  2  0
 17 27  1  0
 18 22  1  0
 19 25  1  0
 22 26  1  0
 24 25  1  0
M  END
$$$$

     RDKit          2D

  1  0  0  0  0  0  0  0  0  0999 V2000
    0.0000    0.0000    0.0000 C   0  0  0  0  0  0  0  0  0  0  0  0
M  END
$$$$

     RDKit          3D

 28 29  0  0  0  0  0  0  0  0999 V2000
    6.8379   58.7447   21.0024 C   0  0  0  0  0  0  0  0  0  0  0  0
    3.1534   53.1738   18.4283 C   0  0  0  0  0  0  0  0  0  0  0  0
    1.0410   53.6287   24.5207 C   0  0  0  0  0  0  0  0  0  0  0  0
    4.6087   56.9753   22.7021 C   0  0  0  0  0  0  0  0  0  0  0  0
    2.5346   54.7468   22.9724 C   0  0  0  0  0  0  0  0  0  0  0  0
    4.9129   59.4847   22.1495 C   0  0  0  0  0  0  0  0  0  0  0  0
    5.3605   61.6569   20.3678 O   0  0  0  0  0  0  0  0  0  0  0  0
    5.9151   60.3586   18.4441 C   0  0  0  0  0  0  0  0  0  0  0  0
    3.6505   52.5485   19.7255 C   0  0  0  0  0  0  0  0  0  0  0  0
    2.7125   56.4084   26.2228 O   0  0  0  0  0  0  0  0  0  0  0  0
    2.9134   55.6362   23.9785 C   0  0  0  0  0  0  0  0  0  0  0  0
    6.8111   58.0179   22.2697 N   0  0  0  0  0  0  0  0  0  0  0  0
    2.3341   55.5146   25.2517 C   0  0  0  0  0  0  0  0  0  0  0  0
    1.6469   50.9347   20.0105 C   0  0  0  0  0  0  0  0  0  0  0  0
    3.3948   59.6925   22.2032 C   0  0  0  0  0  0  0  0  0  0  0  0
    5.4721   58.2532   22.8773 C   0  0  0  0  0  0  0  0  0  0  0  0
    2.9088   60.0933   23.5888 C   0  0  0  0  0  0  0  0  0  0  0  0
    1.5990   53.7417   23.2430 C   0  0  0  0  0  0  0  0  0  0  0  0
    3.8473   56.6799   23.8123 N   0  0  0  0  0  0  0  0  0  0  0  0
    1.7086   53.1236   21.0157 O   0  0  0  0  0  0  0  0  0  0  0  0
    1.4036   54.5184   25.5313 C   0  0  0  0  0  0  0  0  0  0  0  0
    1.1646   52.8040   22.3307 O   0  0  0  0  0  0  0  0  0  0  0  0
    7.1873   57.8706   20.0293 F   0  0  0  0  0  0  0  0  0  0  0  0
    4.6473   56.3289   21.6573 O   0  0  0  0  0  0  0  0  0  0  0  0
    2.4061   49.6941   19.5702 C   0  0  0  0  0  0  0  0  0  0  0  0
    2.5383   52.0135   20.6401 C   0  0  0  0  0  0  0  0  0  0  0  0
    5.5518   60.5356   19.8973 C   0  0  0  0  0  0  0  0  0  0  0  0
    5.4464   59.2775   20.7339 C   0  0  0  0  0  0  0  0  0  0  0  0
  1 12  1  0
  1 23  1  0
  1 28  1  0
  2  9  1  0
  3 18  4  0
  3 21  4  0
  4 16  1  0
  4 19  1  0
  4 24  2  0
  5 11  4  0
  5 18  4  0
  6 15  1  0
  6 16  1  0
  6 28  1  0
  7 27  2  0
  8 27  1  0
  9 26  1  0
 10 13  1  0
 11 13  4  0
 11 19  1  0
 12 16  1  0
 13 21  4  0
 14 25  1  0
 14 26  1  0
 15 17  1  0
 18 22  1  0
 20 22  1  0
 20 26  1  0
 27 28  1  0
M  END
$$$$

     RDKit          3D

 27 28  0  0  0  0  0  0  0  0999 V2000
    3.1281   55.9224   24.7465 C   0  0  0  0  0  0  0  0  0  0  0  0
    2.8451   52.3672   18.8604 N   0  0  0  0  0  0  0  0  0  0  0  0
    4.7208   60.8082   20.6544 C   0  0  0  0  0  0  0  0  0  0  0  0
    4.6992   58.6412   19.6353 O   0  0  0  0  0  0  0  0  0  0  0  0
    5.2003   56.4365   23.3855 C   0  0  0  0  0  0  0  0  0  0  0  0
    1.9519   52.1265   21.0114 N   0  0  0  0  0  0  0  0  0  0  0  0
    6.6041   59.1088   21.1184 C   0  0  0  0  0  0  0  0  0  0  0  0
    3.2355   55.0934   22.4810 C   0  0  0  0  0  0  0  0  0  0  0  0
    1.2786   53.6284   21.3419 S   0  0  0  0  0  4  0  0  0  0  0  0
    1.2865   54.6367   23.8525 C   0  0  0  0  0  0  0  0  0  0  0  0
    4.1218   59.3762   23.3076 C   0  0  0  0  0  0  0  0  0  0  0  0
    3.8236   55.8158   23.5303 C   0  0  0  0  0  0  0  0  0  0  0  0
    7.4430   58.8458   19.8708 C   0  0  0  0  0  0  0  0  0  0  0  0
    4.4028   58.5658   22.0217 C   0  0  0  0  0  0  0  0  0  0  0  0
    2.9647   51.1118   23.0937 C   0  0  0  0  0  0  0  0  0  0  0  0
    5.2962   59.9699   24.0725 C   0  0  0  0  0  0  0  0  0  0  0  0
    3.1698   52.0084   20.2244 C   0  0  0  0  0  0  0  0  0  0  0  0
    5.0868   59.3228   20.8549 C   0  0  0  0  0  0  0  0  0  0  0  0
    3.3162   60.9783   20.2396 N   0  0  0  0  0  0  0  0  0  0  0  0
    1.8668   55.3420   24.9039 C   0  0  0  0  0  0  0  0  0  0  0  0
   -0.2913   53.4192   21.5888 O   0  0  0  0  0  0  0  0  0  0  0  0
    1.9789   54.5150   22.6527 C   0  0  0  0  0  0  0  0  0  0  0  0
    1.3269   54.5375   20.0202 O   0  0  0  0  0  0  0  0  0  0  0  0
    1.8812   51.0600   22.0220 C   0  0  0  0  0  0  0  0  0  0  0  0
    6.1520   55.3622   23.2808 O   0  0  0  0  0  0  0  0  0  0  0  0
    5.3666   57.3687   22.1581 C   0  0  0  0  0  0  0  0  0  0  0  0
    6.7094   57.9947   22.0842 N   0  0  0  0  0  0  0  0  0  0  0  0
  1 12  4  0
  1 20  4  0
  2 17  1  0
  3 18  1  0
  3 19  1  0
  4 18  1  0
  5 12  1  0
  5 25  1  0
  5 26  1  0
  6  9  1  0
  6 17  1  0
  6 24  1  0
  7 13  1  0
  7 18  1  0
  7 27  1  0
  8 12  4  0
  8 22  4  0
  9 21  1  0
  9 22  1  0
  9 23  1  0
 10 20  4  0
 10 22  4  0
 11 14  1  0
 11 16  1  0
 14 18  1  0
 14 26  1  0
 15 24  1  0
 26 27  1  0
M  END
$$$$

     RDKit          3D

 27 28  0  0  0  0  0  0  0  0999 V2000
    5.6584   57.9604   21.7919 C   0  0  0  0  0  0  0  0  0  0  0  0
    1.1125   55.3055   24.9028 C   0  0  0  0  0  0  0  0  0  0  0  0
    5.9590   61.6930   21.1315 C   0  0  0  0  0  0  0  0  0  0  0  0
    4.7252   56.7311   21.8611 C   0  0  0  0  0  0  0  0  0  0  0  0
    7.1005   60.3301   22.6859 O   0  0  0  0  0  0  0  0  0  0  0  0
    2.1162   56.1533   24.4496 C   0  0  0  0  0  0  0  0  0  0  0  0
    1.7484   50.6754   21.3232 N   0  0  0  0  0  0  0  0  0  0  0  0
    1.1970   52.6328   22.4591 O   0  0  0  0  0  0  0  0  0  0  0  0
    1.3436   52.7185   20.0533 C   0  0  0  0  0  0  0  0  0  0  0  0
    3.8486   56.7849   22.9292 N   0  0  0  0  0  0  0  0  0  0  0  0
    6.3412   58.0602   20.4890 N   0  0  0  0  0  0  0  0  0  0  0  0
    0.8484   54.1338   24.1944 C   0  0  0  0  0  0  0  0  0  0  0  0
    1.9284   52.1297   21.3372 C   0  0  0  0  0  0  0  0  0  0  0  0
    6.8743   59.8870   18.9837 C   0  0  0  0  0  0  0  0  0  0  0  0
    2.5799   54.6744   22.5970 C   0  0  0  0  0  0  0  0  0  0  0  0
    6.2435   60.2337   21.5052 C   0  0  0  0  0  0  0  0  0  0  0  0
    3.7635   59.5347   21.0553 C   0  0  0  0  0  0  0  0  0  0  0  0
    5.0284   59.3606   21.9327 C   0  0  0  0  0  0  0  0  0  0  0  0
    4.0653   49.7828   21.5000 C   0  0  0  0  0  0  0  0  0  0  0  0
    5.4671   62.3961   22.2756 O   0  0  0  0  0  0  0  0  0  0  0  0
    2.7662   60.5261   21.6420 C   0  0  0  0  0  0  0  0  0  0  0  0
    1.5773   53.8088   23.0443 C   0  0  0  0  0  0  0  0  0  0  0  0
    2.4039   57.3171   25.1183 O   0  0  0  0  0  0  0  0  0  0  0  0
    4.8420   55.7857   21.0834 O   0  0  0  0  0  0  0  0  0  0  0  0
    6.9735   59.3853   20.4195 C   0  0  0  0  0  0  0  0  0  0  0  0
    2.8599   55.8492   23.2995 C   0  0  0  0  0  0  0  0  0  0  0  0
    2.8198   49.9548   20.6396 C   0  0  0  0  0  0  0  0  0  0  0  0
  1  4  1  0
  1 11  1  0
  1 18  1  0
  2  6  4  0
  2 12  4  0
  3 16  1  0
  3 20  1  0
  4 10  1  0
  4 24  2  0
  5 16  1  0
  6 23  1  0
  6 26  4  0
  7 13  1  0
  7 27  1  0
  8 13  1  0
  8 22  1  0
  9 13  1  0
 10 26  1  0
 11 25  1  0
 12 22  4  0
 14 25  1  0
 15 22  4  0
 15 26  4  0
 16 18  1  0
 16 25  1  0
 17 18  1  0
 17 21  1  0
 19 27  1  0
M  END
$$$$

     RDKit          3D

 29 31  0  0  0  0  0  0  0  0999 V2000
    1.3206   52.2565   21.3924 S   0  0  0  0  0  0  0  0  0  0  0  0
    6.8637   61.6170   22.6419 O   0  0  0  0  0  0  0  0  0  0  0  0
    1.4080   53.6243   23.8199 C   0  0  0  0  0  0  0  0  0  0  0  0
    1.7806   56.9865   24.9430 N   0  0  0  0  0  0  0  0  0  0  0  0
    4.1410   58.8951   20.0503 N   0  0  0  0  0  0  0  0  0  0  0  0
    4.1543   56.9353   22.2800 F   0  0  0  0  0  0  0  0  0  0  0  0
    1.9075   57.3547   22.1002 N   0  0  0  0  0  0  0  0  0  0  0  0
    1.4630   53.6938   22.4309 C   0  0  0  0  0  0  0  0  0  0  0  0
    7.6614   61.1606   20.3944 C   0  0  1  0  0  0  0  0  0  0  0  0
    2.6950   48.7965   20.5978 C   0  0  0  0  0  0  0  0  0  0  0  0
    6.4301   59.3176   19.1212 C   0  0  0  0  0  0  0  0  0  0  0  0
    5.3506   59.2713   24.5064 C   0  0  0  0  0  0  0  0  0  0  0  0
    3.1364   57.7476   21.9493 C   0  0  0  0  0  0  0  0  0  0  0  0
    1.5053   54.6925   24.6509 N   0  0  0  0  0  0  0  0  0  0  0  0
    7.7927   59.8758   19.5682 C   0  0  0  0  0  0  0  0  0  0  0  0
    3.5419   50.0612   20.5452 C   0  0  0  0  0  0  0  0  0  0  0  0
    1.6236   54.9544   21.8588 C   0  0  0  0  0  0  0  0  0  0  0  0
    5.3044   59.7704   20.0490 C   0  0  2  0  0  0  0  0  0  0  0  0
    6.7585   60.9271   21.6274 C   0  0  0  0  0  0  0  0  0  0  0  0
    8.9850   61.6286   20.8303 N   0  0  0  0  0  0  0  0  0  0  0  0
    2.2001   51.1789   22.3129 O   0  0  0  0  0  0  0  0  0  0  0  0
    4.3535   59.6805   23.7118 C   0  0  0  0  0  0  0  0  0  0  0  0
    4.4725   52.0368   21.8501 C   0  0  0  0  0  0  0  0  0  0  0  0
    1.6654   55.8962   24.0708 C   0  0  0  0  0  0  0  0  0  0  0  0
    3.4582   59.1145   21.3571 C   0  0  1  0  0  0  0  0  0  0  0  0
    1.7485   56.0787   22.6763 C   0  0  0  0  0  0  0  0  0  0  0  0
    4.4212   59.9629   22.2307 C   0  0  2  0  0  0  0  0  0  0  0  0
    5.7559   59.7929   21.5044 C   0  0  1  0  0  0  0  0  0  0  0  0
    3.5228   50.8382   21.8721 C   0  0  2  0  0  0  0  0  0  0  0  0
  1  8  1  0
  1 21  1  0
  2 19  2  0
  3  8  4  0
  3 14  4  0
  4 24  1  0
  5 18  1  0
 25  5  1  6
  6 13  1  0
  7 13  2  3
  7 26  1  0
  8 17  4  0
  9 15  1  0
  9 19  1  0
  9 20  1  1
 10 16  1  0
 11 15  1  0
 18 11  1  6
 12 22  2  0
 13 25  1  0
 14 24  4  0
 16 29  1  0
 17 26  4  0
 18 28  1  0
 28 19  1  6
 21 29  1  0
 27 22  1  1
 29 23  1  6
 24 26  4  0
 25 27  1  0
 27 28  1  0
M  END
$$$$

     RDKit          2D

  1  0  0  0  0  0  0  0  0  0999 V2000
    0.0000    0.0000    0.0000 C   0  0  0  0  0  0  0  0  0  0  0  0
M  END
$$$$

     RDKit          3D

 27 29  0  0  0  0  0  0  0  0999 V2000
    7.1936   61.3357   19.6303 C   0  0  0  0  0  0  0  0  0  0  0  0
    5.3712   57.6033   21.7497 N   0  0  0  0  0  0  0  0  0  0  0  0
    2.6669   55.9225   23.9691 C   0  0  0  0  0  0  0  0  0  0  0  0
    1.9569   54.0832   25.2940 C   0  0  0  0  0  0  0  0  0  0  0  0
    6.3131   58.5224   21.1109 C   0  0  0  0  0  0  0  0  0  0  0  0
    6.0236   61.9537   21.6205 O   0  0  0  0  0  0  0  0  0  0  0  0
    5.4672   59.7529   20.7357 C   0  0  0  0  0  0  0  0  0  0  0  0
    1.6657   54.0209   22.8618 C   0  0  0  0  0  0  0  0  0  0  0  0
    2.8423   57.4031   22.2757 C   0  0  0  0  0  0  0  0  0  0  0  0
    1.1098   53.1975   21.3823 S   0  0  0  0  0  0  0  0  0  0  0  0
    4.1402   59.5870   21.5084 C   0  0  0  0  0  0  0  0  0  0  0  0
    2.9694   56.0296   26.3721 N   0  0  0  0  0  0  0  0  0  0  0  0
    2.2273   55.2900   22.8113 C   0  0  0  0  0  0  0  0  0  0  0  0
    4.1515   52.1344   21.4220 C   0  0  0  0  0  0  0  0  0  0  0  0
    1.5130   53.4313   24.1263 C   0  0  0  0  0  0  0  0  0  0  0  0
    3.9974   58.0521   21.4369 C   0  0  0  0  0  0  0  0  0  0  0  0
    2.6009   55.3181   25.2194 C   0  0  0  0  0  0  0  0  0  0  0  0
    3.8294   50.5875   18.7205 N   0  0  0  0  0  0  0  0  0  0  0  0
    7.9900   62.4847   19.8719 O   0  0  0  0  0  0  0  0  0  0  0  0
    1.7376   51.6803   21.6786 O   0  0  0  0  0  0  0  0  0  0  0  0
    2.7461   51.2524   19.4516 C   0  0  0  0  0  0  0  0  0  0  0  0
    7.4692   58.7686   22.0744 C   0  0  0  0  0  0  0  0  0  0  0  0
    2.4927   56.0943   21.6717 N   0  0  0  0  0  0  0  0  0  0  0  0
    3.2186   57.2008   23.6889 N   0  0  0  0  0  0  0  0  0  0  0  0
    6.2046   61.0835   20.7683 C   0  0  0  0  0  0  0  0  0  0  0  0
    2.9409   51.3079   20.9855 C   0  0  0  0  0  0  0  0  0  0  0  0
    4.1199   60.1499   22.9299 C   0  0  0  0  0  0  0  0  0  0  0  0
  1 19  1  0
  1 25  1  0
  2  5  1  0
  2 16  1  0
  3 13  4  0
  3 17  4  0
  3 24  1  0
  4 15  4  0
  4 17  4  0
  5  7  1  0
  5 22  1  0
  6 25  2  0
  7 11  1  0
  7 25  1  0
  8 10  1  0
  8 13  4  0
  8 15  4  0
  9 16  1  0
  9 23  1  0
  9 24  1  0
 10 20  1  0
 11 16  1  0
 11 27  1  0
 12 17  1  0
 13 23  1  0
 14 26  1  0
 18 21  1  0
 20 26  1  0
 21 26  1  0
M  END
$$$$

     RDKit          2D

  1  0  0  0  0  0  0  0  0  0999 V2000
    0.0000    0.0000    0.0000 C   0  0  0  0  0  0  0  0  0  0  0  0
M  END
$$$$

     RDKit          3D

 28 29  0  0  0  0  0  0  0  0999 V2000
    3.0193   55.4208   23.0586 C   0  0  0  0  0  0  0  0  0  0  0  0
    4.8099   56.5224   21.6777 C   0  0  0  0  0  0  0  0  0  0  0  0
    6.0086   61.5516   21.8131 C   0  0  0  0  0  0  0  0  0  0  0  0
    0.2831   51.7754   21.7920 O   0  0  0  0  0  0  0  0  0  0  0  0
    6.2445   58.0897   20.3600 N   0  0  0  0  0  0  0  0  0  0  0  0
    1.9237   50.7720   19.6166 C   0  0  0  0  0  0  0  0  0  0  0  0
    1.9065   53.2756   22.6896 C   0  0  0  0  0  0  0  0  0  0  0  0
    7.1702   63.6569   22.0957 O   0  0  0  0  0  0  0  0  0  0  0  0
    5.1264   59.1167   22.1558 C   0  0  0  0  0  0  0  0  0  0  0  0
    5.0412   62.0216   22.4194 O   0  0  0  0  0  0  0  0  0  0  0  0
    2.2189   55.6290   24.1900 C   0  0  0  0  0  0  0  0  0  0  0  0
    1.1244   53.5217   23.8377 C   0  0  0  0  0  0  0  0  0  0  0  0
    2.2412   50.7621   22.7196 C   0  0  0  0  0  0  0  0  0  0  0  0
    6.3085   60.1469   19.0963 C   0  0  0  0  0  0  0  0  0  0  0  0
    5.7234   57.7701   21.7111 C   0  0  0  0  0  0  0  0  0  0  0  0
    2.6923   59.7733   22.2300 C   0  0  0  0  0  0  0  0  0  0  0  0
    6.7668   59.4620   20.3785 C   0  0  0  0  0  0  0  0  0  0  0  0
    2.2533   52.0048   20.4549 C   0  0  0  0  0  0  0  0  0  0  0  0
    4.9485   55.6581   20.8118 O   0  0  0  0  0  0  0  0  0  0  0  0
    2.3927   56.7884   24.9051 O   0  0  0  0  0  0  0  0  0  0  0  0
    1.2747   54.6901   24.5853 C   0  0  0  0  0  0  0  0  0  0  0  0
    2.8595   54.2450   22.3204 C   0  0  0  0  0  0  0  0  0  0  0  0
    3.9453   56.4393   22.7514 N   0  0  0  0  0  0  0  0  0  0  0  0
    3.7542   50.7124   22.8867 C   0  0  0  0  0  0  0  0  0  0  0  0
    7.0779   62.4977   21.2797 C   0  0  0  0  0  0  0  0  0  0  0  0
    6.2657   60.0549   21.7066 C   0  0  0  0  0  0  0  0  0  0  0  0
    1.7077   51.9678   21.9073 C   0  0  0  0  0  0  0  0  0  0  0  0
    3.7725   59.3978   21.5327 C   0  0  0  0  0  0  0  0  0  0  0  0
  1 11  4  0
  1 22  4  0
  1 23  1  0
  2 15  1  0
  2 19  2  0
  2 23  1  0
  3 10  2  0
  3 25  1  0
  3 26  1  0
  4 27  1  0
  5 15  1  0
  5 17  1  0
  6 18  1  0
  7 12  4  0
  7 22  4  0
  7 27  1  0
  8 25  1  0
  9 15  1  0
  9 26  1  0
  9 28  1  0
 11 20  1  0
 11 21  4  0
 12 21  4  0
 13 24  1  0
 13 27  1  0
 14 17  1  0
 16 28  2  0
 17 26  1  0
 18 27  1  0
M  END
$$$$

     RDKit          3D

 28 29  0  0  0  0  0  0  0  0999 V2000
    7.0254   61.7964   21.5683 C   0  0  0  0  0  0  0  0  0  0  0  0
    6.0078   57.7506   20.5302 N   0  0  0  0  0  0  0  0  0  0  0  0
    0.8298   52.5389   21.6594 C   0  0  0  0  0  0  0  0  0  0  0  0
    2.2263   55.3635   24.6267 C   0  0  0  0  0  0  0  0  0  0  0  0
    2.1021   54.6423   22.3458 C   0  0  0  0  0  0  0  0  0  0  0  0
    4.8922   62.3411   20.6363 O   0  0  0  0  0  0  0  0  0  0  0  0
   -0.2299   51.7452   22.1701 O   0  0  0  0  0  0  0  0  0  0  0  0
    4.5023   59.2576   21.5916 C   0  0  0  0  0  0  0  0  0  0  0  0
    0.9840   53.3865   24.0840 C   0  0  0  0  0  0  0  0  0  0  0  0
    2.9625   52.2859   20.1403 C   0  0  0  0  0  0  0  0  0  0  0  0
    2.6056   50.6284   22.0885 C   0  0  0  0  0  0  0  0  0  0  0  0
    5.3880   59.9941   20.5601 C   0  0  0  0  0  0  0  0  0  0  0  0
    7.2419   59.2114   18.9943 C   0  0  0  0  0  0  0  0  0  0  0  0
    7.0406   63.1487   22.0031 O   0  0  0  0  0  0  0  0  0  0  0  0
    3.7995   51.3168   19.3115 C   0  0  0  0  0  0  0  0  0  0  0  0
    5.1322   57.8498   21.7116 C   0  0  0  0  0  0  0  0  0  0  0  0
    6.5962   59.0800   20.3669 C   0  0  0  0  0  0  0  0  0  0  0  0
    2.6781   56.2561   25.5621 O   0  0  0  0  0  0  0  0  0  0  0  0
    1.4359   54.3025   25.0351 C   0  0  0  0  0  0  0  0  0  0  0  0
    0.1757   53.2735   20.5864 N   0  0  0  0  0  0  0  0  0  0  0  0
    3.7601   51.1966   22.9039 C   0  0  0  0  0  0  0  0  0  0  0  0
    1.3174   53.5260   22.7213 C   0  0  0  0  0  0  0  0  0  0  0  0
    4.3740   59.9346   22.9561 C   0  0  0  0  0  0  0  0  0  0  0  0
    1.9307   51.5795   21.0575 C   0  0  0  0  0  0  0  0  0  0  0  0
    3.3054   56.7350   22.9706 N   0  0  0  0  0  0  0  0  0  0  0  0
    2.5942   55.5502   23.2876 C   0  0  0  0  0  0  0  0  0  0  0  0
    5.7075   61.4455   20.8872 C   0  0  0  0  0  0  0  0  0  0  0  0
    4.1004   56.6973   21.7338 C   0  0  0  0  0  0  0  0  0  0  0  0
  1 14  1  0
  1 27  1  0
  2 16  1  0
  2 17  1  0
  3  7  1  0
  3 20  1  0
  3 22  1  0
  3 24  1  0
  4 18  1  0
  4 19  4  0
  4 26  4  0
  5 22  4  0
  5 26  4  0
  6 27  2  0
  8 12  1  0
  8 16  1  0
  8 23  1  0
  9 19  4  0
  9 22  4  0
 10 15  1  0
 10 24  1  0
 11 21  1  0
 11 24  1  0
 12 17  1  0
 12 27  1  0
 13 17  1  0
 16 28  1  0
 25 26  1  0
 25 28  1  0
M  END
$$$$

     RDKit          3D

 29 30  0  0  0  0  0  0  0  0999 V2000
    4.2498   56.5571   22.7232 N   0  0  0  0  0  0  0  0  0  0  0  0
    0.5069   52.9125   21.3234 S   0  0  0  0  0  0  0  0  0  0  0  0
    2.8494   52.8918   24.2398 C   0  0  0  0  0  0  0  0  0  0  0  0
    5.7249   58.6401   22.3896 N   0  0  0  0  0  0  0  0  0  0  0  0
    4.3473   59.6655   20.6605 C   0  0  0  0  0  0  0  0  0  0  0  0
   -0.1165   49.8459   22.8575 C   0  0  0  0  0  0  0  0  0  0  0  0
    3.7291   55.3365   23.1889 C   0  0  0  0  0  0  0  0  0  0  0  0
    4.4996   54.6357   24.1310 C   0  0  0  0  0  0  0  0  0  0  0  0
    0.8302   51.3009   21.0244 N   0  0  0  0  0  0  0  0  0  0  0  0
    6.6016   59.6713   22.3171 C   0  0  0  0  0  0  0  0  0  0  0  0
    7.3706   61.8613   21.3948 C   0  0  0  0  0  0  0  0  0  0  0  0
    2.6504   57.3040   21.2237 O   0  0  0  0  0  0  0  0  0  0  0  0
    2.5107   54.7970   22.7750 C   0  0  0  0  0  0  0  0  0  0  0  0
    4.6152   58.6484   21.5794 C   0  0  0  0  0  0  0  0  0  0  0  0
    1.9313   60.3248   20.4273 C   0  0  0  0  0  0  0  0  0  0  0  0
    2.1844   50.7599   21.0564 C   0  0  0  0  0  0  0  0  0  0  0  0
    7.1991   62.8657   20.5914 N   0  0  0  0  0  0  0  0  0  0  0  0
   -0.1643   50.2808   21.3960 C   0  0  0  0  0  0  0  0  0  0  0  0
    3.0079   51.4955   20.1145 N   0  0  0  0  0  0  0  0  0  0  0  0
    5.6967   55.1765   24.5294 O   0  0  0  0  0  0  0  0  0  0  0  0
    4.0671   53.4224   24.6620 C   0  0  0  0  0  0  0  0  0  0  0  0
    6.4087   60.7407   21.4493 C   0  0  0  0  0  0  0  0  0  0  0  0
    0.8860   52.9779   22.9442 O   0  0  0  0  0  0  0  0  0  0  0  0
    3.1409   59.6916   19.7546 C   0  0  0  0  0  0  0  0  0  0  0  0
    2.0838   53.5635   23.2826 C   0  0  0  0  0  0  0  0  0  0  0  0
    3.7185   57.4416   21.8036 C   0  0  0  0  0  0  0  0  0  0  0  0
    7.7797   59.5727   23.2409 C   0  0  0  0  0  0  0  0  0  0  0  0
    5.2710   60.7236   20.6268 C   0  0  0  0  0  0  0  0  0  0  0  0
    5.0192   61.7587   19.7549 O   0  0  0  0  0  0  0  0  0  0  0  0
  1  7  1  0
  1 26  1  0
  2  9  1  0
  2 23  1  0
  3 21  4  0
  3 25  4  0
  4 10  4  0
  4 14  4  0
  5 14  4  0
  5 24  1  0
  5 28  4  0
  6 18  1  0
  7  8  4  0
  7 13  4  0
  8 20  1  0
  8 21  4  0
  9 16  1  0
  9 18  1  0
 10 22  4  0
 10 27  1  0
 11 17  2  0
 11 22  1  0
 12 26  2  0
 13 25  4  0
 14 26  1  0
 15 24  1  0
 16 19  1  0
 22 28  4  0
 23 25  1  0
 28 29  1  0
M  END
$$$$

     RDKit          2D

  1  0  0  0  0  0  0  0  0  0999 V2000
    0.0000    0.0000    0.0000 C   0  0  0  0  0  0  0  0  0  0  0  0
M  END
$$$$

     RDKit          3D

 26 26  0  0  0  0  0  0  0  0999 V2000
    3.2228   57.1158   21.8333 C   0  0  0  0  0  0  0  0  0  0  0  0
    4.9083   60.4697   21.0541 C   0  0  0  0  0  0  0  0  0  0  0  0
    2.8915   55.8153   23.9201 C   0  0  0  0  0  0  0  0  0  0  0  0
    1.5299   51.5450   23.0062 C   0  0  0  0  0  0  0  0  0  0  0  0
    3.7289   54.0270   25.1512 C   0  0  0  0  0  0  0  0  0  0  0  0
    0.6328   53.0568   20.8904 S   0  0  1  0  0  4  0  0  0  0  0  0
    2.4148   54.5238   23.2952 C   0  0  0  0  0  0  0  0  0  0  0  0
    8.3316   59.8310   21.8378 C   0  0  0  0  0  0  0  0  0  0  0  0
    6.1939   60.4495   20.6528 C   0  0  0  0  0  0  0  0  0  0  0  0
    3.7171   55.4590   25.0358 O   0  0  0  0  0  0  0  0  0  0  0  0
    3.8852   59.7914   23.2454 C   0  0  0  0  0  0  0  0  0  0  0  0
    2.7649   51.0293   19.5385 C   0  0  0  0  0  0  0  0  0  0  0  0
    4.0922   61.5319   20.7076 O   0  0  0  0  0  0  0  0  0  0  0  0
    7.1944   59.3540   20.9436 C   0  0  0  0  0  0  0  0  0  0  0  0
    2.9092   51.4876   20.9846 C   0  0  0  0  0  0  0  0  0  0  0  0
   -0.1462   52.3357   19.6860 O   0  0  0  0  0  0  0  0  0  0  0  0
    2.5064   53.5162   24.4058 C   0  0  1  0  0  0  0  0  0  0  0  0
    6.6732   61.5016   19.8794 O   0  0  0  0  0  0  0  0  0  0  0  0
    3.6812   56.5955   23.0112 N   0  0  0  0  0  0  0  0  0  0  0  0
    4.2391   59.4231   21.8191 C   0  0  0  0  0  0  0  0  0  0  0  0
    2.2050   56.5879   21.2135 N   0  0  0  0  0  0  0  0  0  0  0  0
    1.6428   51.9075   21.5875 N   0  0  0  0  0  0  0  0  0  0  0  0
    1.5534   54.1375   20.1301 O   0  0  0  0  0  0  0  0  0  0  0  0
    3.9080   58.2753   21.1958 C   0  0  0  0  0  0  0  0  0  0  0  0
    5.0919   59.8166   24.1746 C   0  0  0  0  0  0  0  0  0  0  0  0
    2.6306   52.0571   23.9602 C   0  0  0  0  0  0  0  0  0  0  0  0
  1 19  1  0
  1 21  2  0
  1 24  1  0
  2  9  2  3
  2 13  1  0
  2 20  1  0
  3  7  1  0
  3 10  1  0
  3 19  1  0
  4 22  1  0
  4 26  1  0
  5 10  1  0
  5 17  1  0
  6 16  1  6
  6 22  1  0
  6 23  1  0
  7 17  1  0
  8 14  1  0
  9 14  1  0
  9 18  1  0
 11 20  1  0
 11 25  1  0
 12 15  1  0
 15 22  1  0
 17 26  1  6
 20 24  2  3
M  END
$$$$

     RDKit          3D

 26 27  0  0  0  0  0  0  0  0999 V2000
    2.3684   57.9513   19.6889 O   0  0  0  0  0  0  0  0  0  0  0  0
    5.8547   58.5118   20.0241 C   0  0  0  0  0  0  0  0  0  0  0  0
    1.4677   55.2556   22.1159 C   0  0  0  0  0  0  0  0  0  0  0  0
    8.6149   61.7232   21.4053 O   0  0  0  0  0  0  0  0  0  0  0  0
    6.6996   60.2980   21.7177 C   0  0  0  0  0  0  0  0  0  0  0  0
    2.4380   52.5563   20.9921 S   0  0  0  0  0  0  0  0  0  0  0  0
    1.3971   54.1544   24.2645 C   0  0  0  0  0  0  0  0  0  0  0  0
    5.4587   57.4866   24.2390 C   0  0  0  0  0  0  0  0  0  0  0  0
    1.4077   56.5670   24.1454 C   0  0  0  0  0  0  0  0  0  0  0  0
    5.6649   53.5704   20.7902 C   0  0  0  0  0  0  0  0  0  0  0  0
    4.0989   57.5452   21.3477 C   0  0  0  0  0  0  0  0  0  0  0  0
    2.6443   57.7720   20.8810 C   0  0  0  0  0  0  0  0  0  0  0  0
    4.6635   58.6363   23.6352 C   0  0  0  0  0  0  0  0  0  0  0  0
    8.1039   60.4243   21.1362 C   0  0  0  0  0  0  0  0  0  0  0  0
    4.8895   53.1171   22.0235 C   0  0  0  0  0  0  0  0  0  0  0  0
    4.4384   50.8074   21.4364 C   0  0  0  0  0  0  0  0  0  0  0  0
    1.3643   55.3945   24.9002 C   0  0  0  0  0  0  0  0  0  0  0  0
    3.8499   52.1076   21.7598 N   0  0  0  0  0  0  0  0  0  0  0  0
    1.4939   52.8127   22.3404 O   0  0  0  0  0  0  0  0  0  0  0  0
    4.9719   57.3445   20.1566 N   0  0  0  0  0  0  0  0  0  0  0  0
    5.2380   59.5812   19.1201 C   0  0  0  0  0  0  0  0  0  0  0  0
    6.0833   58.9162   21.4842 C   0  0  0  0  0  0  0  0  0  0  0  0
    1.4660   54.0800   22.8728 C   0  0  0  0  0  0  0  0  0  0  0  0
    1.4807   56.5103   22.7471 C   0  0  0  0  0  0  0  0  0  0  0  0
    4.6840   58.7508   22.1012 C   0  0  0  0  0  0  0  0  0  0  0  0
    1.5480   57.7780   21.9320 C   0  0  0  0  0  0  0  0  0  0  0  0
  1 12  2  0
  2 20  1  0
  2 21  1  0
  2 22  1  0
  3 23  4  0
  3 24  4  0
  4 14  1  0
  5 14  1  0
  5 22  1  0
  6 18  1  0
  6 19  1  0
  7 17  4  0
  7 23  4  0
  8 13  1  0
  9 17  4  0
  9 24  4  0
 10 15  1  0
 11 12  1  0
 11 20  1  0
 11 25  1  0
 12 26  1  0
 13 25  1  0
 15 18  1  0
 16 18  1  0
 19 23  1  0
 22 25  1  0
 24 26  1  0
M  END
$$$$

     RDKit          3D

 29 31  0  0  0  0  0  0  0  0999 V2000
    6.4092   62.0059   22.8418 O   0  0  0  0  0  0  0  0  0  0  0  0
    1.9788   55.6058   24.4674 C   0  0  0  0  0  0  0  0  0  0  0  0
    5.5489   58.0663   20.3525 N   0  0  0  0  0  0  0  0  0  0  0  0
    3.7343   55.9761   20.5439 O   0  0  0  0  0  0  0  0  0  0  0  0
    4.2066   49.9188   20.7625 C   0  0  0  0  0  0  0  0  0  0  0  0
    4.9078   58.8410   22.4656 C   0  0  0  0  0  0  0  0  0  0  0  0
    1.1532   53.2747   23.2461 C   0  0  0  0  0  0  0  0  0  0  0  0
    3.1061   51.9458   21.5616 N   0  0  0  0  0  0  0  0  0  0  0  0
    0.9598   54.8510   25.0472 C   0  0  0  0  0  0  0  0  0  0  0  0
    6.6118   61.5427   20.4541 C   0  0  0  0  0  0  0  0  0  0  0  0
    0.7084   52.0721   22.7535 O   0  0  0  0  0  0  0  0  0  0  0  0
    7.9331   58.6634   20.5524 C   0  0  0  0  0  0  0  0  0  0  0  0
    3.6263   56.1052   22.8658 N   0  0  0  0  0  0  0  0  0  0  0  0
    6.0940   59.7294   21.9847 C   0  0  0  0  0  0  0  0  0  0  0  0
    3.4925   59.4049   22.2127 C   0  0  0  0  0  0  0  0  0  0  0  0
    2.8693   53.4108   21.3823 C   0  0  0  0  0  0  0  0  0  0  0  0
    2.2143   53.9894   22.6329 C   0  0  0  0  0  0  0  0  0  0  0  0
    5.1931   57.5422   21.6868 C   0  0  0  0  0  0  0  0  0  0  0  0
    1.9736   53.6845   20.1638 C   0  0  0  0  0  0  0  0  0  0  0  0
    3.8296   51.3556   20.4302 C   0  0  0  0  0  0  0  0  0  0  0  0
    2.5470   56.6931   25.2056 N   0  0  0  0  0  0  0  0  0  0  0  0
    3.0185   60.3095   23.3460 C   0  0  0  0  0  0  0  0  0  0  0  0
    2.6141   55.1894   23.2578 C   0  0  0  0  0  0  0  0  0  0  0  0
    0.5247   53.6982   24.4148 C   0  0  0  0  0  0  0  0  0  0  0  0
    6.2790   60.3243   19.6066 C   0  0  0  0  0  0  0  0  0  0  0  0
    6.1457   62.7412   19.8572 O   0  0  0  0  0  0  0  0  0  0  0  0
    6.4803   59.1637   20.5893 C   0  0  0  0  0  0  0  0  0  0  0  0
    4.0854   56.4637   21.6128 C   0  0  0  0  0  0  0  0  0  0  0  0
    5.8806   61.2334   21.7678 C   0  0  0  0  0  0  0  0  0  0  0  0
  1 29  1  0
  2  9  4  0
  2 21  1  0
  2 23  4  0
  3 18  1  0
  3 27  1  0
  4 28  2  0
  5 20  1  0
  6 14  1  0
  6 15  1  0
  6 18  1  0
  7 11  1  0
  7 17  4  0
  7 24  4  0
  8 16  1  0
  8 20  1  0
  9 24  4  0
 10 25  1  0
 10 26  1  0
 10 29  1  0
 12 27  1  0
 13 23  1  0
 13 28  1  0
 14 27  1  0
 14 29  1  0
 15 22  1  0
 16 17  1  0
 16 19  1  0
 17 23  4  0
 18 28  1  0
 25 27  1  0
M  END
$$$$

     RDKit          3D

 28 30  0  0  0  0  0  0  0  0999 V2000
    1.5444   53.8826   23.0482 C   0  0  0  0  0  0  0  0  0  0  0  0
    6.2303   57.9033   21.2182 N   0  0  0  0  0  0  0  0  0  0  0  0
    4.0171   57.1098   22.1622 C   0  0  0  0  0  0  0  0  0  0  0  0
    2.0274   54.2334   25.3867 C   0  0  0  0  0  0  0  0  0  0  0  0
    0.6590   52.8948   21.8377 S   0  0  0  0  0  0  0  0  0  0  0  0
    3.4146   56.5062   21.1248 N   0  0  0  0  0  0  0  0  0  0  0  0
    6.1771   61.1662   21.1921 C   0  0  0  0  0  0  0  0  0  0  0  0
    4.3086   59.3723   21.0090 C   0  0  0  0  0  0  0  0  0  0  0  0
    3.4270   60.6994   23.0877 C   0  0  0  0  0  0  0  0  0  0  0  0
    2.8617   55.3111   25.0566 C   0  0  0  0  0  0  0  0  0  0  0  0
    2.6086   50.3093   19.9140 C   0  0  0  0  0  0  0  0  0  0  0  0
    3.2267   60.2608   21.6449 C   0  0  0  0  0  0  0  0  0  0  0  0
    3.8479   56.7410   23.4488 N   0  0  0  0  0  0  0  0  0  0  0  0
    1.3714   53.5252   24.3878 C   0  0  0  0  0  0  0  0  0  0  0  0
    5.5256   60.0670   20.3723 C   0  0  0  0  0  0  0  0  0  0  0  0
    3.8370   51.2553   21.8887 C   0  0  0  0  0  0  0  0  0  0  0  0
    7.8808   59.1145   19.7923 C   0  0  0  0  0  0  0  0  0  0  0  0
    4.9473   58.2877   21.8926 C   0  0  0  0  0  0  0  0  0  0  0  0
    1.2639   50.0605   19.2436 C   0  0  0  0  0  0  0  0  0  0  0  0
    1.9625   52.3964   20.9254 O   0  0  0  0  0  0  0  0  0  0  0  0
    6.7626   60.7761   22.3792 O   0  0  0  0  0  0  0  0  0  0  0  0
    6.2060   62.4459   20.7976 C   0  0  0  0  0  0  0  0  0  0  0  0
    2.4713   51.0923   21.2268 C   0  0  0  0  0  0  0  0  0  0  0  0
    6.4119   58.8338   20.0859 C   0  0  0  0  0  0  0  0  0  0  0  0
    2.6203   55.4612   21.4270 C   0  0  0  0  0  0  0  0  0  0  0  0
    3.5639   56.0615   26.1591 C   0  0  0  0  0  0  0  0  0  0  0  0
    3.0460   55.6987   23.7231 C   0  0  0  0  0  0  0  0  0  0  0  0
    2.3809   54.9842   22.7161 C   0  0  0  0  0  0  0  0  0  0  0  0
  1  5  1  0
  1 14  4  0
  1 28  4  0
  2 18  1  0
  2 24  1  0
  3  6  4  0
  3 13  4  0
  3 18  1  0
  4 10  4  0
  4 14  4  0
  5 20  1  0
  6 25  4  0
  7 15  1  0
  7 21  1  0
  7 22  2  0
  8 12  1  0
  8 15  1  0
  8 18  1  0
  9 12  1  0
 10 26  1  0
 10 27  4  0
 11 19  1  0
 11 23  1  0
 13 27  4  0
 15 24  1  0
 16 23  1  0
 17 24  1  0
 20 23  1  0
 25 28  4  0
 27 28  4  0
M  END
$$$$

     RDKit          3D

 26 27  0  0  0  0  0  0  0  0999 V2000
    2.9736   53.9306   25.1354 C   0  0  0  0  0  0  0  0  0  0  0  0
    4.1146   56.4222   22.6474 N   0  0  0  0  0  0  0  0  0  0  0  0
    6.3767   59.3869   22.6928 C   0  0  0  0  0  0  0  0  0  0  0  0
    4.4035   59.4402   21.3591 C   0  0  0  0  0  0  0  0  0  0  0  0
    3.6067   59.8894   20.1226 C   0  0  0  0  0  0  0  0  0  0  0  0
    6.1628   58.0161   22.1897 N   0  0  0  0  0  0  0  0  0  0  0  0
    2.0444   50.6932   22.3155 C   0  0  0  0  0  0  0  0  0  0  0  0
    2.0024   52.2775   20.2940 C   0  0  0  0  0  0  0  0  0  0  0  0
    3.3689   55.3623   23.1982 C   0  0  0  0  0  0  0  0  0  0  0  0
    1.7861   53.5356   23.0760 C   0  0  0  0  0  0  0  0  0  0  0  0
    6.3948   60.8545   20.6127 C   0  0  0  0  0  0  0  0  0  0  0  0
    5.0750   61.4331   22.5663 O   0  0  0  0  0  0  0  0  0  0  0  0
    4.4697   55.7398   25.3166 O   0  0  0  0  0  0  0  0  0  0  0  0
    5.0809   58.0788   21.1602 C   0  0  0  0  0  0  0  0  0  0  0  0
    2.9121   61.2316   20.2992 C   0  0  0  0  0  0  0  0  0  0  0  0
    1.2741   51.7717   21.5506 C   0  0  0  0  0  0  0  0  0  0  0  0
    4.0936   56.9102   21.3553 C   0  0  0  0  0  0  0  0  0  0  0  0
    0.8171   52.8499   22.3975 O   0  0  0  0  0  0  0  0  0  0  0  0
    3.6163   55.0083   24.5339 C   0  0  0  0  0  0  0  0  0  0  0  0
    7.8564   59.7204   22.8538 C   0  0  0  0  0  0  0  0  0  0  0  0
    2.4155   54.6348   22.4848 C   0  0  0  0  0  0  0  0  0  0  0  0
    2.0426   53.1982   24.4044 C   0  0  0  0  0  0  0  0  0  0  0  0
    3.3682   56.5417   20.4377 O   0  0  0  0  0  0  0  0  0  0  0  0
    5.5668   60.3406   21.7933 C   0  0  0  0  0  0  0  0  0  0  0  0
    6.5955   62.0534   20.4264 O   0  0  0  0  0  0  0  0  0  0  0  0
    2.1892   51.2072   19.2286 C   0  0  0  0  0  0  0  0  0  0  0  0
  1 19  4  0
  1 22  4  0
  2  9  1  0
  2 17  1  0
  3  6  1  0
  3 20  1  0
  3 24  1  0
  4  5  1  0
  4 14  1  0
  4 24  1  0
  5 15  1  0
  6 14  1  0
  7 16  1  0
  8 16  1  0
  8 26  1  0
  9 19  4  0
  9 21  4  0
 10 18  1  0
 10 21  4  0
 10 22  4  0
 11 24  1  0
 11 25  2  0
 12 24  1  0
 13 19  1  0
 14 17  1  0
 16 18  1  0
 17 23  2  0
M  END
$$$$

     RDKit          3D

 27 28  0  0  0  0  0  0  0  0999 V2000
    5.0660   56.6611   23.8857 C   0  0  0  0  0  0  0  0  0  0  0  0
    3.0479   51.0644   22.4829 C   0  0  0  0  0  0  0  0  0  0  0  0
    2.7613   55.9360   24.7556 C   0  0  0  0  0  0  0  0  0  0  0  0
    1.5045   54.2277   23.5472 C   0  0  0  0  0  0  0  0  0  0  0  0
    4.6927   61.7142   21.0780 O   0  0  0  0  0  0  0  0  0  0  0  0
    0.7723   53.9017   20.3329 S   0  0  0  0  0  4  0  0  0  0  0  0
    5.6291   57.0149   21.3922 N   0  0  0  0  0  0  0  0  0  0  0  0
    4.9046   57.7743   19.2141 C   0  0  0  0  0  0  0  0  0  0  0  0
    6.7103   60.0390   21.6003 O   0  0  0  0  0  0  0  0  0  0  0  0
    3.5966   54.9856   22.6848 C   0  0  0  0  0  0  0  0  0  0  0  0
    2.4262   60.0911   22.5426 C   0  0  0  0  0  0  0  0  0  0  0  0
    4.7460   58.9499   22.4849 C   0  0  0  0  0  0  0  0  0  0  0  0
    4.7857   60.5000   20.3297 C   0  0  0  0  0  0  0  0  0  0  0  0
    6.1362   55.7071   24.0736 O   0  0  0  0  0  0  0  0  0  0  0  0
    2.8930   56.6855   25.9357 N   0  0  0  0  0  0  0  0  0  0  0  0
    5.5093   57.6216   22.7343 C   0  0  0  0  0  0  0  0  0  0  0  0
    5.7882   58.1028   20.4133 C   0  0  0  0  0  0  0  0  0  0  0  0
    1.9245   51.7793   21.7374 C   0  0  0  0  0  0  0  0  0  0  0  0
    1.6654   55.0725   24.6483 C   0  0  0  0  0  0  0  0  0  0  0  0
   -0.4760   53.6203   21.1187 O   0  0  0  0  0  0  0  0  0  0  0  0
    3.4642   53.2721   20.3011 C   0  0  0  0  0  0  0  0  0  0  0  0
    3.2153   58.7937   22.4039 C   0  0  0  0  0  0  0  0  0  0  0  0
    3.7706   55.8696   23.7774 C   0  0  0  0  0  0  0  0  0  0  0  0
    2.4647   54.1664   22.5287 C   0  0  0  0  0  0  0  0  0  0  0  0
    3.3846   52.3253   19.1035 C   0  0  0  0  0  0  0  0  0  0  0  0
    5.4554   59.4158   21.1785 C   0  0  0  0  0  0  0  0  0  0  0  0
    2.2655   53.2372   21.3079 C   0  0  0  0  0  0  0  0  0  0  0  0
  1 14  1  0
  1 16  1  0
  1 23  1  0
  2 18  1  0
  3 15  1  0
  3 19  4  0
  3 23  4  0
  4 19  4  0
  4 24  4  0
  5 13  1  0
  6 20  2  0
  6 27  1  0
  7 16  1  0
  7 17  1  0
  8 17  1  0
  9 26  1  0
 10 23  4  0
 10 24  4  0
 11 22  1  0
 12 16  1  0
 12 22  1  0
 12 26  1  0
 13 26  1  0
 17 26  1  0
 18 27  1  0
 21 25  1  0
 21 27  1  0
 24 27  1  0
M  END
$$$$

     RDKit          2D

  1  0  0  0  0  0  0  0  0  0999 V2000
    0.0000    0.0000    0.0000 C   0  0  0  0  0  0  0  0  0  0  0  0
M  END
$$$$

     RDKit          3D

 30 32  0  0  0  0  0  0  0  0999 V2000
    5.2763   60.8914   20.1700 C   0  0  0  0  0  0  0  0  0  0  0  0
    2.9826   55.2258   25.4082 C   0  0  0  0  0  0  0  0  0  0  0  0
    1.2204   53.0759   20.8120 S   0  0  0  0  0  0  0  0  0  0  0  0
    4.9968   57.4750   23.2480 C   0  0  0  0  0  0  0  0  0  0  0  0
    2.9076   55.0790   22.9347 C   0  0  0  0  0  0  0  0  0  0  0  0
    6.7747   59.5507   21.6883 C   0  0  0  0  0  0  0  0  0  0  0  0
    2.6717   52.9770   24.3835 C   0  0  0  0  0  0  0  0  0  0  0  0
    3.0057   59.5113   22.1618 C   0  0  0  0  0  0  0  0  0  0  0  0
    4.0399   56.9514   24.0849 N   0  0  0  0  0  0  0  0  0  0  0  0
    5.2301   58.9996   23.4106 C   0  0  0  0  0  0  0  0  0  0  0  0
    2.6248   53.5683   22.9650 C   0  0  0  0  0  0  0  0  0  0  0  0
    5.3484   59.7228   21.1406 C   0  0  0  0  0  0  0  0  0  0  0  0
    7.6688   60.7727   21.4693 C   0  0  0  0  0  0  0  0  0  0  0  0
    2.1321   59.8236   23.3688 C   0  0  0  0  0  0  0  0  0  0  0  0
    0.1053   50.6599   21.2725 C   0  0  0  0  0  0  0  0  0  0  0  0
    4.2946   61.6292   20.1033 O   0  0  0  0  0  0  0  0  0  0  0  0
    6.4597   61.0088   19.2266 C   0  0  0  0  0  0  0  0  0  0  0  0
    2.0930   50.7241   19.8120 C   0  0  0  0  0  0  0  0  0  0  0  0
    6.3495   62.0498   18.3525 F   0  0  0  0  0  0  0  0  0  0  0  0
    0.3795   49.2415   21.7622 C   0  0  0  0  0  0  0  0  0  0  0  0
    6.6507   59.3214   23.1372 N   0  0  0  0  0  0  0  0  0  0  0  0
    1.3079   51.4066   20.8561 N   0  0  0  0  0  0  0  0  0  0  0  0
    5.6064   56.7853   22.4321 O   0  0  0  0  0  0  0  0  0  0  0  0
    3.0177   55.9885   26.3768 O   0  0  0  0  0  0  0  0  0  0  0  0
    2.1550   53.9580   25.4293 C   0  0  0  0  0  0  0  0  0  0  0  0
    3.7582   55.5230   24.1206 C   0  0  0  0  0  0  0  0  0  0  0  0
    1.3765   50.5640   18.4747 C   0  0  0  0  0  0  0  0  0  0  0  0
    1.3075   53.3377   22.4535 O   0  0  0  0  0  0  0  0  0  0  0  0
    7.7656   61.1658   19.9965 C   0  0  0  0  0  0  0  0  0  0  0  0
    4.4805   59.8667   22.3940 C   0  0  0  0  0  0  0  0  0  0  0  0
  1 12  1  0
  1 16  2  0
  1 17  1  0
  2 24  2  0
  2 25  1  0
  2 26  1  0
  3 22  1  0
  3 28  1  0
  4  9  1  0
  4 10  1  0
  4 23  2  0
  5 11  1  0
  5 26  1  0
  6 12  1  0
  6 13  1  0
  6 21  1  0
  7 11  1  0
  7 25  1  0
  8 14  1  0
  8 30  1  0
  9 26  1  0
 10 21  1  0
 10 30  1  0
 11 28  1  0
 12 30  1  0
 13 29  1  0
 15 20  1  0
 15 22  1  0
 17 19  1  0
 17 29  1  0
 18 22  1  0
 18 27  1  0
M  END
$$$$

     RDKit          3D

 26 27  0  0  0  0  0  0  0  0999 V2000
    1.6581   55.9552   24.0473 C   0  0  0  0  0  0  0  0  0  0  0  0
    6.1155   57.6302   21.5846 C   0  0  0  0  0  0  0  0  0  0  0  0
    2.9087   54.7868   25.6978 C   0  0  0  0  0  0  0  0  0  0  0  0
    6.8690   56.4741   20.9280 C   0  0  0  0  0  0  0  0  0  0  0  0
    3.3151   53.7405   21.6596 O   0  0  0  0  0  0  0  0  0  0  0  0
    4.9477   58.1757   20.7464 C   0  0  0  0  0  0  0  0  0  0  0  0
    3.7722   54.7939   24.4250 C   0  0  0  0  0  0  0  0  0  0  0  0
    0.6424   55.5699   26.2078 O   0  0  0  0  0  0  0  0  0  0  0  0
    5.6341   60.5278   20.5128 O   0  0  0  0  0  0  0  0  0  0  0  0
    3.4572   56.2394   22.3701 O   0  0  0  0  0  0  0  0  0  0  0  0
    1.8241   52.5544   20.1600 C   0  0  0  0  0  0  0  0  0  0  0  0
    5.5449   57.1881   22.8714 N   0  0  0  0  0  0  0  0  0  0  0  0
    6.3887   59.0440   18.7910 C   0  0  0  0  0  0  0  0  0  0  0  0
    3.3189   54.0840   17.8996 C   0  0  0  0  0  0  0  0  0  0  0  0
    2.5090   58.7573   21.3009 C   0  0  0  0  0  0  0  0  0  0  0  0
    2.6939   53.8045   20.3655 C   0  0  0  0  0  0  0  0  0  0  0  0
    2.5950   51.2415   20.2093 C   0  0  0  0  0  0  0  0  0  0  0  0
    3.9317   58.5552   21.8418 C   0  0  0  0  0  0  0  0  0  0  0  0
    1.4662   54.9909   25.2087 C   0  0  0  0  0  0  0  0  0  0  0  0
    1.5790   59.3876   22.3268 C   0  0  0  0  0  0  0  0  0  0  0  0
    2.8589   55.3521   23.3103 C   0  0  0  0  0  0  0  0  0  0  0  0
    2.3029   54.2070   22.6080 O   0  0  0  0  0  0  0  0  0  0  0  0
    5.2863   59.3447   19.7968 C   0  0  0  0  0  0  0  0  0  0  0  0
    3.8126   53.9859   19.3332 C   0  0  0  0  0  0  0  0  0  0  0  0
    3.1075   53.5926   26.5169 N   0  0  0  0  0  0  0  0  0  0  0  0
    4.0996   57.4063   22.8476 C   0  0  0  0  0  0  0  0  0  0  0  0
  1 19  1  0
  1 21  1  0
  2  4  1  0
  2  6  1  0
  2 12  1  0
  3  7  1  0
  3 19  1  0
  3 25  1  0
  5 16  1  0
  5 22  1  0
  6 18  1  0
  6 23  1  0
  7 21  1  0
  8 19  1  0
  9 23  1  0
 10 21  1  0
 10 26  1  0
 11 16  1  0
 11 17  1  0
 12 26  1  0
 13 23  1  0
 14 24  1  0
 15 18  1  0
 15 20  1  0
 16 24  1  0
 18 26  1  0
 21 22  1  0
M  END
$$$$

     RDKit          2D

  1  0  0  0  0  0  0  0  0  0999 V2000
    0.0000    0.0000    0.0000 C   0  0  0  0  0  0  0  0  0  0  0  0
M  END
$$$$

     RDKit          3D

 27 29  0  0  0  0  0  0  0  0999 V2000
    5.7274   61.7057   21.4425 C   0  0  0  0  0  0  0  0  0  0  0  0
    5.8678   59.4849   20.9337 C   0  0  1  0  0  0  0  0  0  0  0  0
    5.6311   59.6642   23.2874 C   0  0  0  0  0  0  0  0  0  0  0  0
    4.5534   57.3347   22.8058 C   0  0  0  0  0  0  0  0  0  0  0  0
    2.3420   50.4927   22.6095 C   0  0  0  0  0  0  0  0  0  0  0  0
    2.2178   55.8075   24.2521 C   0  0  0  0  0  0  0  0  0  0  0  0
    0.8267   54.1669   23.1502 C   0  0  0  0  0  0  0  0  0  0  0  0
    4.2091   60.0537   23.7185 C   0  0  0  0  0  0  0  0  0  0  0  0
    6.3816   58.2357   21.4481 N   0  0  0  0  0  0  0  0  0  0  0  0
    3.2571   55.5398   23.3576 C   0  0  0  0  0  0  0  0  0  0  0  0
    6.6340   62.5938   19.3143 O   0  0  0  0  0  0  0  0  0  0  0  0
    1.7837   50.3630   20.1051 C   0  0  0  0  0  0  0  0  0  0  0  0
    6.0877   59.5444   18.4016 C   0  0  0  0  0  0  0  0  0  0  0  0
    3.0816   54.5637   22.3748 C   0  0  0  0  0  0  0  0  0  0  0  0
    1.2870   50.6803   21.5224 C   0  0  2  0  0  0  0  0  0  0  0  0
    5.3965   62.7290   22.0250 O   0  0  0  0  0  0  0  0  0  0  0  0
    1.7921   52.9456   21.2602 O   0  0  0  0  0  0  0  0  0  0  0  0
    0.7238   52.0009   21.5755 O   0  0  0  0  0  0  0  0  0  0  0  0
    2.1792   48.9074   19.9144 C   0  0  0  0  0  0  0  0  0  0  0  0
    5.8306   61.6003   19.9063 C   0  0  1  0  0  0  0  0  0  0  0  0
    5.8238   58.1734   22.8327 C   0  0  1  0  0  0  0  0  0  0  0  0
    6.1893   60.4239   22.0891 C   0  0  2  0  0  0  0  0  0  0  0  0
    6.4537   60.1978   19.7244 C   0  0  1  0  0  0  0  0  0  0  0  0
    1.0028   55.1291   24.1458 C   0  0  0  0  0  0  0  0  0  0  0  0
    4.1862   61.2471   24.6665 C   0  0  0  0  0  0  0  0  0  0  0  0
    4.4761   56.2230   23.4645 N   0  0  0  0  0  0  0  0  0  0  0  0
    1.8720   53.8740   22.2729 C   0  0  0  0  0  0  0  0  0  0  0  0
  1 16  2  0
  1 20  1  0
  1 22  1  0
  2  9  1  1
  2 22  1  0
  2 23  1  0
  3  8  1  0
  3 21  1  0
 22  3  1  1
  4 21  1  0
  4 26  2  3
 15  5  1  1
  6 10  4  0
  6 24  4  0
  7 24  4  0
  7 27  4  0
  8 25  1  0
 21  9  1  6
 10 14  4  0
 10 26  1  0
 20 11  1  6
 12 15  1  0
 12 19  1  0
 23 13  1  6
 14 27  4  0
 15 18  1  0
 17 18  1  0
 17 27  1  0
 20 23  1  0
M  END
$$$$

     RDKit          3D

 29 30  0  0  0  0  0  0  0  0999 V2000
    4.5353   59.4568   20.6241 C   0  0  0  0  0  0  0  0  0  0  0  0
    4.2095   54.9870   24.1668 C   0  0  0  0  0  0  0  0  0  0  0  0
    5.2047   61.8976   21.0422 C   0  0  0  0  0  0  0  0  0  0  0  0
    6.6702   59.8191   21.7494 C   0  0  0  0  0  0  0  0  0  0  0  0
    2.7257   53.0970   24.1107 C   0  0  0  0  0  0  0  0  0  0  0  0
    1.7857   51.0403   22.1142 C   0  0  0  0  0  0  0  0  0  0  0  0
    5.0847   55.8058   24.8327 O   0  0  0  0  0  0  0  0  0  0  0  0
    6.2439   58.4085   21.8850 N   0  0  0  0  0  0  0  0  0  0  0  0
    0.4599   53.1620   20.8753 S   0  0  0  0  0  4  0  0  0  0  0  0
    4.5712   56.3711   22.2512 N   0  0  0  0  0  0  0  0  0  0  0  0
   -0.0941   50.5326   23.7755 C   0  0  0  0  0  0  0  0  0  0  0  0
    5.9942   62.8229   21.9407 C   0  0  0  0  0  0  0  0  0  0  0  0
    2.4650   50.5762   20.8204 C   0  0  0  0  0  0  0  0  0  0  0  0
    5.3111   58.1449   20.7618 C   0  0  0  0  0  0  0  0  0  0  0  0
    4.2092   62.3885   20.5141 O   0  0  0  0  0  0  0  0  0  0  0  0
    3.0367   54.4318   22.1339 C   0  0  0  0  0  0  0  0  0  0  0  0
    0.5454   50.1859   22.4379 C   0  0  0  0  0  0  0  0  0  0  0  0
    3.6086   59.7483   23.0748 C   0  0  0  0  0  0  0  0  0  0  0  0
    3.9271   55.2606   22.8241 C   0  0  0  0  0  0  0  0  0  0  0  0
    3.3290   59.6231   21.5838 C   0  0  0  0  0  0  0  0  0  0  0  0
    8.1170   59.8627   21.2472 C   0  0  0  0  0  0  0  0  0  0  0  0
    3.7229   56.4643   20.0868 O   0  0  0  0  0  0  0  0  0  0  0  0
   -0.2760   52.0980   20.1207 O   0  0  0  0  0  0  0  0  0  0  0  0
    5.6856   60.4822   20.7666 C   0  0  0  0  0  0  0  0  0  0  0  0
    3.6149   53.9130   24.8155 C   0  0  0  0  0  0  0  0  0  0  0  0
    1.4988   52.4928   22.0811 N   0  0  0  0  0  0  0  0  0  0  0  0
    2.4198   53.3299   22.7566 C   0  0  0  0  0  0  0  0  0  0  0  0
    7.1574   62.6202   22.2397 O   0  0  0  0  0  0  0  0  0  0  0  0
    4.4448   56.8935   20.9833 C   0  0  0  0  0  0  0  0  0  0  0  0
  1 14  1  0
  1 20  1  0
  1 24  1  0
  2  7  1  0
  2 19  4  0
  2 25  4  0
  3 12  1  0
  3 15  2  0
  3 24  1  0
  4  8  1  0
  4 21  1  0
  4 24  1  0
  5 25  4  0
  5 27  4  0
  6 13  1  0
  6 17  1  0
  6 26  1  0
  8 14  1  0
  9 23  2  0
  9 26  1  0
 10 19  1  0
 10 29  1  0
 11 17  1  0
 12 28  2  0
 14 29  1  0
 16 19  4  0
 16 27  4  0
 18 20  1  0
 22 29  2  0
 26 27  1  0
M  END
$$$$

     RDKit          2D

  1  0  0  0  0  0  0  0  0  0999 V2000
    0.0000    0.0000    0.0000 C   0  0  0  0  0  0  0  0  0  0  0  0
M  END
$$$$

     RDKit          3D

 28 30  0  0  0  0  0  0  0  0999 V2000
    0.7866   58.2704   21.4512 O   0  0  0  0  0  0  0  0  0  0  0  0
    7.4096   59.2841   22.7768 O   0  0  0  0  0  0  0  0  0  0  0  0
    1.4936   55.0624   24.6400 C   0  0  0  0  0  0  0  0  0  0  0  0
    1.8296   56.7003   22.8904 C   0  0  0  0  0  0  0  0  0  0  0  0
    3.2770   58.9150   20.5608 N   0  0  0  0  0  0  0  0  0  0  0  0
    2.2484   54.3147   22.4459 C   0  0  0  0  0  0  0  0  0  0  0  0
    5.2822   59.0385   21.6742 C   0  0  0  0  0  0  0  0  0  0  0  0
    5.2302   59.6177   19.3080 C   0  0  0  0  0  0  0  0  0  0  0  0
    6.0409   52.4224   20.5240 C   0  0  0  0  0  0  0  0  0  0  0  0
    3.3087   52.1060   22.0108 C   0  0  0  0  0  0  0  0  0  0  0  0
    1.5935   53.0984   20.1595 S   0  0  0  0  0  4  0  0  0  0  0  0
    1.4609   56.3842   24.2020 C   0  0  0  0  0  0  0  0  0  0  0  0
    4.6618   52.4001   22.6759 C   0  0  0  0  0  0  0  0  0  0  0  0
    1.8294   58.1345   22.4146 C   0  0  0  0  0  0  0  0  0  0  0  0
    8.7236   60.0781   20.4927 O   0  0  0  0  0  0  0  0  0  0  0  0
    7.3722   59.7916   20.4727 C   0  0  0  0  0  0  0  0  0  0  0  0
    4.4268   58.6211   22.6138 C   0  0  0  0  0  0  0  0  0  0  0  0
    1.1499   51.6681   20.0825 O   0  0  0  0  0  0  0  0  0  0  0  0
    3.1693   58.5670   21.8217 C   0  0  0  0  0  0  0  0  0  0  0  0
    1.8894   54.0410   23.7717 C   0  0  0  0  0  0  0  0  0  0  0  0
    5.6657   53.1586   21.8004 C   0  0  0  0  0  0  0  0  0  0  0  0
    2.6440   53.3241   21.5273 N   0  0  0  0  0  0  0  0  0  0  0  0
    5.5021   57.5623   24.5470 C   0  0  0  0  0  0  0  0  0  0  0  0
    2.2013   55.6561   22.0243 C   0  0  0  0  0  0  0  0  0  0  0  0
    4.6018   59.2128   20.4148 C   0  0  0  0  0  0  0  0  0  0  0  0
    6.6497   59.9025   19.3470 C   0  0  0  0  0  0  0  0  0  0  0  0
    6.7283   59.3533   21.7596 C   0  0  0  0  0  0  0  0  0  0  0  0
    4.5557   58.3428   24.0124 C   0  0  0  0  0  0  0  0  0  0  0  0
  1 14  1  0
  2 27  2  0
  3 12  4  0
  3 20  4  0
  4 12  4  0
  4 14  1  0
  4 24  4  0
  5 19  2  0
  5 25  1  0
  6 20  4  0
  6 22  1  0
  6 24  4  0
  7 17  2  0
  7 25  1  0
  7 27  1  0
  8 25  2  0
  8 26  1  0
  9 21  1  0
 10 13  1  0
 10 22  1  0
 11 18  2  0
 11 22  1  0
 13 21  1  0
 14 19  1  0
 15 16  1  0
 16 26  2  0
 16 27  1  0
 17 19  1  0
 17 28  1  0
 23 28  2  0
M  END
$$$$

     RDKit          3D

 27 28  0  0  0  0  0  0  0  0999 V2000
    1.5289   53.5219   23.6460 C   0  0  0  0  0  0  0  0  0  0  0  0
    1.4015   54.9478   24.1894 C   0  0  0  0  0  0  0  0  0  0  0  0
    1.9643   58.7955   21.4549 O   0  0  0  0  0  0  0  0  0  0  0  0
    7.0638   60.2525   21.1788 C   0  0  0  0  0  0  0  0  0  0  0  0
    4.1078   58.1931   22.4403 C   0  0  0  0  0  0  0  0  0  0  0  0
    3.4432   51.8908   21.7621 C   0  0  0  0  0  0  0  0  0  0  0  0
    4.7048   59.5607   22.0957 C   0  0  0  0  0  0  0  0  0  0  0  0
    4.9778   60.3701   24.5506 C   0  0  0  0  0  0  0  0  0  0  0  0
    1.8208   57.2894   23.3011 C   0  0  0  0  0  0  0  0  0  0  0  0
    6.0620   57.8188   21.1143 C   0  0  0  0  0  0  0  0  0  0  0  0
    1.7689   55.1680   21.8642 C   0  0  0  0  0  0  0  0  0  0  0  0
    3.2547   53.3003   21.9496 O   0  0  0  0  0  0  0  0  0  0  0  0
    2.5798   58.1509   22.3080 C   0  0  0  0  0  0  0  0  0  0  0  0
    1.9586   55.0748   25.4854 O   0  0  0  0  0  0  0  0  0  0  0  0
    4.8500   51.5687   22.2595 C   0  0  0  0  0  0  0  0  0  0  0  0
    4.7246   57.3020   21.4409 N   0  0  0  0  0  0  0  0  0  0  0  0
    3.0356   50.0435   20.0370 C   0  0  0  0  0  0  0  0  0  0  0  0
    4.4547   60.6514   23.1491 C   0  0  0  0  0  0  0  0  0  0  0  0
    7.4862   61.1928   22.1900 O   0  0  0  0  0  0  0  0  0  0  0  0
    7.4173   62.0158   19.5779 O   0  0  0  0  0  0  0  0  0  0  0  0
    6.2039   57.7991   19.5990 C   0  0  0  0  0  0  0  0  0  0  0  0
    1.8875   53.6721   22.1588 C   0  0  0  0  0  0  0  0  0  0  0  0
    2.1686   55.8108   23.1909 C   0  0  0  0  0  0  0  0  0  0  0  0
    6.1717   59.1840   21.8293 C   0  0  0  0  0  0  0  0  0  0  0  0
    6.4347   61.0926   20.0597 C   0  0  0  0  0  0  0  0  0  0  0  0
    3.2833   51.5046   20.2989 C   0  0  0  0  0  0  0  0  0  0  0  0
    3.3361   52.3834   19.2816 C   0  0  0  0  0  0  0  0  0  0  0  0
  1  2  1  0
  1 22  1  0
  2 14  1  0
  2 23  1  0
  3 13  2  0
  4 19  1  0
  4 24  1  0
  4 25  1  0
  5  7  1  0
  5 13  1  0
  5 16  1  0
  6 12  1  0
  6 15  1  0
  6 26  1  0
  7 18  1  0
  7 24  1  0
  8 18  1  0
  9 13  1  0
  9 23  1  0
 10 16  1  0
 10 21  1  0
 10 24  1  0
 11 22  1  0
 11 23  1  0
 12 22  1  0
 17 26  1  0
 20 25  1  0
 26 27  2  0
M  END
$$$$

     RDKit          2D

  1  0  0  0  0  0  0  0  0  0999 V2000
    0.0000    0.0000    0.0000 C   0  0  0  0  0  0  0  0  0  0  0  0
M  END
$$$$

     RDKit          3D

 28 29  0  0  0  0  0  0  0  0999 V2000
    2.4882   52.7823   23.4458 C   0  0  0  0  0  0  0  0  0  0  0  0
    2.3511   55.5622   24.4898 C   0  0  0  0  0  0  0  0  0  0  0  0
    4.5477   59.4844   21.6348 C   0  0  0  0  0  0  0  0  0  0  0  0
    3.9749   61.9771   22.0273 C   0  0  0  0  0  0  0  0  0  0  0  0
    3.5534   58.9506   22.6616 C   0  0  0  0  0  0  0  0  0  0  0  0
    1.8661   50.0367   21.5513 C   0  0  0  0  0  0  0  0  0  0  0  0
    8.4929   60.5018   20.9140 C   0  0  0  0  0  0  0  0  0  0  0  0
    3.7360   56.3629   22.5545 C   0  0  0  0  0  0  0  0  0  0  0  0
    1.9828   57.5957   21.4687 O   0  0  0  0  0  0  0  0  0  0  0  0
    1.1427   50.2546   20.2968 N   0  0  0  0  0  0  0  0  0  0  0  0
    1.3950   53.2616   24.4086 C   0  0  0  0  0  0  0  0  0  0  0  0
    6.1376   61.2919   20.9263 C   0  0  0  0  0  0  0  0  0  0  0  0
    7.5771   57.6777   20.5342 C   0  0  0  0  0  0  0  0  0  0  0  0
    3.4497   53.9022   23.0203 C   0  0  0  0  0  0  0  0  0  0  0  0
    1.4161   50.9208   22.5935 O   0  0  0  0  0  0  0  0  0  0  0  0
    2.5424   50.5737   18.2950 C   0  0  0  0  0  0  0  0  0  0  0  0
    3.5644   62.3279   23.4524 C   0  0  0  0  0  0  0  0  0  0  0  0
    1.8609   52.2724   22.2646 O   0  0  0  0  0  0  0  0  0  0  0  0
    2.4109   56.6890   24.9824 O   0  0  0  0  0  0  0  0  0  0  0  0
    1.7076   51.2394   19.3795 C   0  0  0  0  0  0  0  0  0  0  0  0
    6.5920   58.8431   20.5590 C   0  0  0  0  0  0  0  0  0  0  0  0
    5.0779   60.9001   21.9745 C   0  0  0  0  0  0  0  0  0  0  0  0
    1.8779   54.3816   25.3147 C   0  0  0  0  0  0  0  0  0  0  0  0
    5.6568   58.5669   21.6109 O   0  0  0  0  0  0  0  0  0  0  0  0
    3.3906   49.9643   21.4999 C   0  0  0  0  0  0  0  0  0  0  0  0
    2.9859   57.6310   22.1860 C   0  0  0  0  0  0  0  0  0  0  0  0
    2.7730   55.2797   23.0486 C   0  0  0  0  0  0  0  0  0  0  0  0
    7.1851   60.2136   20.8003 C   0  0  0  0  0  0  0  0  0  0  0  0
  1 11  1  0
  1 14  1  0
  1 18  1  0
  2 19  2  0
  2 23  1  0
  2 27  1  0
  3  5  1  0
  3 22  1  0
  3 24  1  0
  4 17  1  0
  4 22  1  0
  5 26  1  0
  6 10  1  0
  6 15  1  0
  6 25  1  0
  7 28  2  0
  8 26  1  0
  8 27  1  0
  9 26  2  0
 10 20  1  0
 11 23  1  0
 12 22  1  0
 12 28  1  0
 13 21  1  0
 14 27  1  0
 15 18  1  0
 16 20  1  0
 21 24  1  0
 21 28  1  0
M  END
$$$$

     RDKit          3D

 27 27  0  0  0  0  0  0  0  0999 V2000
    4.3073   56.8478   22.3771 C   0  0  0  0  0  0  0  0  0  0  0  0
    4.6007   59.3624   22.2438 C   0  0  0  0  0  0  0  0  0  0  0  0
    0.0877   52.8115   20.9497 S   0  0  0  0  0  4  0  0  0  0  0  0
    6.0657   61.9038   18.7282 O   0  0  0  0  0  0  0  0  0  0  0  0
    5.6055   62.1705   21.3865 O   0  0  0  0  0  0  0  0  0  0  0  0
    3.1829   55.7547   24.3376 C   0  0  1  0  0  0  0  0  0  0  0  0
    3.8317   55.7138   23.0416 N   0  0  0  0  0  0  0  0  0  0  0  0
    2.5165   51.2225   19.6198 C   0  0  0  0  0  0  0  0  0  0  0  0
    4.3954   58.1651   23.1675 C   0  0  0  0  0  0  0  0  0  0  0  0
    2.6964   52.6219   20.2417 C   0  0  0  0  0  0  0  0  0  0  0  0
    5.8244   59.8531   21.9214 C   0  0  0  0  0  0  0  0  0  0  0  0
    3.6448   54.4826   22.2594 C   0  0  0  0  0  0  0  0  0  0  0  0
    6.2679   60.7567   19.5481 C   0  0  0  0  0  0  0  0  0  0  0  0
    1.5304   53.9962   23.5597 C   0  0  0  0  0  0  0  0  0  0  0  0
    7.0870   59.2725   22.3595 C   0  0  0  0  0  0  0  0  0  0  0  0
   -0.7073   54.0290   21.3108 O   0  0  0  0  0  0  0  0  0  0  0  0
    2.5714   50.0545   20.6112 C   0  0  0  0  0  0  0  0  0  0  0  0
    2.6269   60.8876   22.6844 C   0  0  0  0  0  0  0  0  0  0  0  0
    3.2953   59.9329   21.7038 C   0  0  0  0  0  0  0  0  0  0  0  0
    2.1377   54.1375   22.1321 C   0  0  2  0  0  0  0  0  0  0  0  0
    2.4661   54.4464   24.6834 C   0  0  0  0  0  0  0  0  0  0  0  0
    1.7407   52.9521   21.3141 N   0  0  0  0  0  0  0  0  0  0  0  0
    4.6807   56.7916   21.2008 O   0  0  0  0  0  0  0  0  0  0  0  0
    3.8853   49.9604   21.3716 C   0  0  0  0  0  0  0  0  0  0  0  0
    5.8704   61.0326   20.9946 C   0  0  0  0  0  0  0  0  0  0  0  0
    4.2292   56.0101   25.3050 N   0  0  0  0  0  0  0  0  0  0  0  0
    8.2678   59.9058   22.3792 C   0  0  0  0  0  0  0  0  0  0  0  0
  1  7  1  0
  1  9  1  0
  1 23  2  0
  2  9  1  0
  2 11  2  3
  2 19  1  0
  3 16  2  0
  3 22  1  0
  4 13  1  0
  5 25  2  0
  6  7  1  0
  6 21  1  0
  6 26  1  6
  7 12  1  0
  8 10  1  0
  8 17  1  0
 10 22  1  0
 11 15  1  0
 11 25  1  0
 12 20  1  0
 13 25  1  0
 14 20  1  0
 14 21  1  0
 15 27  2  0
 17 24  1  0
 18 19  1  0
 20 22  1  6
M  END
$$$$

     RDKit          3D

 28 29  0  0  0  0  0  0  0  0999 V2000
    3.9501   56.7417   23.1863 N   0  0  0  0  0  0  0  0  0  0  0  0
    4.2379   61.6556   21.1214 O   0  0  0  0  0  0  0  0  0  0  0  0
    5.2479   59.4369   22.6122 C   0  0  0  0  0  0  0  0  0  0  0  0
    2.6908   54.8612   22.1676 C   0  0  0  0  0  0  0  0  0  0  0  0
    4.9761   56.8877   22.2772 C   0  0  0  0  0  0  0  0  0  0  0  0
    2.0013   55.8547   24.2524 C   0  0  0  0  0  0  0  0  0  0  0  0
    6.3370   62.4463   20.2764 C   0  0  0  0  0  0  0  0  0  0  0  0
    0.7251   54.0380   23.3310 C   0  0  0  0  0  0  0  0  0  0  0  0
    6.7241   59.2821   20.7252 C   0  0  0  0  0  0  0  0  0  0  0  0
    7.0182   58.1396   21.6006 N   0  0  0  0  0  0  0  0  0  0  0  0
    4.9826   60.0444   24.0026 C   0  0  0  0  0  0  0  0  0  0  0  0
    1.7425   50.6270   19.8360 C   0  0  0  0  0  0  0  0  0  0  0  0
    6.1512   60.2941   21.7121 C   0  0  0  0  0  0  0  0  0  0  0  0
    5.5658   63.4357   19.6117 O   0  0  0  0  0  0  0  0  0  0  0  0
    2.8967   55.8051   23.1715 C   0  0  0  0  0  0  0  0  0  0  0  0
    0.9191   54.9823   24.3389 C   0  0  0  0  0  0  0  0  0  0  0  0
    5.1779   56.1715   21.2972 O   0  0  0  0  0  0  0  0  0  0  0  0
    3.0341   50.8467   22.0462 C   0  0  0  0  0  0  0  0  0  0  0  0
    2.2181   56.7956   25.2292 O   0  0  0  0  0  0  0  0  0  0  0  0
    5.8052   58.8966   19.5629 C   0  0  0  0  0  0  0  0  0  0  0  0
    2.4118   49.3433   19.3715 C   0  0  0  0  0  0  0  0  0  0  0  0
    1.4729   53.0821   21.2155 O   0  0  0  0  0  0  0  0  0  0  0  0
    0.8400   51.8717   21.7348 O   0  0  0  0  0  0  0  0  0  0  0  0
    1.6149   53.9719   22.2559 C   0  0  0  0  0  0  0  0  0  0  0  0
    6.2054   60.3279   24.8656 C   0  0  0  0  0  0  0  0  0  0  0  0
    5.9363   58.0587   22.6226 C   0  0  0  0  0  0  0  0  0  0  0  0
    1.6715   50.7604   21.3635 C   0  0  0  0  0  0  0  0  0  0  0  0
    5.4534   61.4630   21.0387 C   0  0  0  0  0  0  0  0  0  0  0  0
  1  5  1  0
  1 15  1  0
  2 28  2  0
  3 11  1  0
  3 13  1  0
  3 26  1  0
  4 15  4  0
  4 24  4  0
  5 17  2  0
  5 26  1  0
  6 15  4  0
  6 16  4  0
  6 19  1  0
  7 14  1  0
  7 28  1  0
  8 16  4  0
  8 24  4  0
  9 10  1  0
  9 13  1  0
  9 20  1  0
 10 26  1  0
 11 25  1  0
 12 21  1  0
 12 27  1  0
 13 28  1  0
 18 27  1  0
 22 23  1  0
 22 24  1  0
 23 27  1  0
M  END
$$$$

     RDKit          3D

 27 28  0  0  0  0  0  0  0  0999 V2000
    2.8783   55.0654   23.5084 C   0  0  0  0  0  0  0  0  0  0  0  0
    5.9489   61.2700   19.4802 O   0  0  0  0  0  0  0  0  0  0  0  0
    1.0526   53.5174   23.8179 C   0  0  0  0  0  0  0  0  0  0  0  0
    6.6010   58.7009   22.0947 C   0  0  0  0  0  0  0  0  0  0  0  0
    6.2605   61.6809   21.8034 C   0  0  0  0  0  0  0  0  0  0  0  0
    6.0357   59.2733   20.7885 C   0  0  0  0  0  0  0  0  0  0  0  0
    2.7765   51.9700   21.6974 C   0  0  0  0  0  0  0  0  0  0  0  0
    1.7118   51.0764   22.0512 O   0  0  0  0  0  0  0  0  0  0  0  0
    0.9077   53.9220   25.1471 C   0  0  0  0  0  0  0  0  0  0  0  0
    2.7510   55.4234   24.8663 C   0  0  0  0  0  0  0  0  0  0  0  0
    4.6240   58.6727   20.7085 C   0  0  0  0  0  0  0  0  0  0  0  0
    5.9273   57.4018   22.3107 N   0  0  0  0  0  0  0  0  0  0  0  0
    3.1606   59.3808   22.7056 C   0  0  0  0  0  0  0  0  0  0  0  0
    3.4043   51.4285   20.4009 C   0  0  0  0  0  0  0  0  0  0  0  0
    2.2557   53.4344   21.5913 C   0  0  0  0  0  0  0  0  0  0  0  0
    3.8911   55.7532   22.8022 N   0  0  0  0  0  0  0  0  0  0  0  0
    1.7713   54.8681   25.6828 C   0  0  0  0  0  0  0  0  0  0  0  0
    2.0513   54.0566   22.9765 C   0  0  0  0  0  0  0  0  0  0  0  0
    0.9942   53.5642   20.7271 C   0  0  0  0  0  0  0  0  0  0  0  0
    3.6136   56.3666   25.3741 O   0  0  0  0  0  0  0  0  0  0  0  0
    4.6530   52.1716   19.9532 C   0  0  0  0  0  0  0  0  0  0  0  0
    4.9326   57.2503   21.2027 C   0  0  0  0  0  0  0  0  0  0  0  0
    8.1176   58.5341   22.0545 C   0  0  0  0  0  0  0  0  0  0  0  0
    6.0808   60.7831   20.6071 C   0  0  0  0  0  0  0  0  0  0  0  0
    2.7333   56.3199   20.8536 O   0  0  0  0  0  0  0  0  0  0  0  0
    3.5833   59.5036   21.4406 C   0  0  0  0  0  0  0  0  0  0  0  0
    3.7125   56.4010   21.5892 C   0  0  0  0  0  0  0  0  0  0  0  0
  1 10  4  0
  1 16  1  0
  1 18  4  0
  2 24  2  0
  3  9  4  0
  3 18  4  0
  4  6  1  0
  4 12  1  0
  4 23  1  0
  5 24  1  0
  6 11  1  0
  6 24  1  0
  7  8  1  0
  7 14  1  0
  7 15  1  0
  9 17  4  0
 10 17  4  0
 10 20  1  0
 11 22  1  0
 11 26  1  0
 12 22  1  0
 13 26  2  0
 14 21  1  0
 15 18  1  0
 15 19  1  0
 16 27  1  0
 22 27  1  0
 25 27  2  0
M  END
$$$$

     RDKit          3D

 29 30  0  0  0  0  0  0  0  0999 V2000
    6.5799   59.5152   20.5368 C   0  0  0  0  0  0  0  0  0  0  0  0
    5.1176   61.5214   20.9194 C   0  0  0  0  0  0  0  0  0  0  0  0
    6.0893   58.2596   22.4732 C   0  0  0  0  0  0  0  0  0  0  0  0
    4.1523   56.8710   23.0236 N   0  0  0  0  0  0  0  0  0  0  0  0
    1.0084   54.0723   23.1410 C   0  0  0  0  0  0  0  0  0  0  0  0
    4.7252   63.8009   20.2806 F   0  0  0  0  0  0  0  0  0  0  0  0
    2.9229   54.9933   21.9647 C   0  0  0  0  0  0  0  0  0  0  0  0
    5.3582   59.6124   22.5893 C   0  0  0  0  0  0  0  0  0  0  0  0
    1.9958   49.8256   22.2572 C   0  0  0  0  0  0  0  0  0  0  0  0
    5.6188   62.9492   20.8560 C   0  0  0  0  0  0  0  0  0  0  0  0
    0.5457   48.0807   21.2239 N   0  0  0  0  0  0  0  0  0  0  0  0
    7.6827   60.0670   19.6455 C   0  0  0  0  0  0  0  0  0  0  0  0
    2.2543   55.8907   24.0996 C   0  0  0  0  0  0  0  0  0  0  0  0
    6.6539   60.5069   24.6617 C   0  0  0  0  0  0  0  0  0  0  0  0
    3.1252   55.9062   22.9977 C   0  0  0  0  0  0  0  0  0  0  0  0
    5.1445   57.0882   22.0897 C   0  0  0  0  0  0  0  0  0  0  0  0
    7.1078   58.4574   21.4076 N   0  0  0  0  0  0  0  0  0  0  0  0
    0.6335   49.1265   22.2377 C   0  0  0  0  0  0  0  0  0  0  0  0
    4.0207   61.1839   20.4740 O   0  0  0  0  0  0  0  0  0  0  0  0
    2.4670   56.8018   25.1054 O   0  0  0  0  0  0  0  0  0  0  0  0
    5.3114   60.1986   24.0110 C   0  0  0  0  0  0  0  0  0  0  0  0
    2.1539   50.5306   19.7903 C   0  0  0  0  0  0  0  0  0  0  0  0
    6.0601   60.5156   21.5600 C   0  0  0  0  0  0  0  0  0  0  0  0
    1.8750   54.0709   22.0449 C   0  0  0  0  0  0  0  0  0  0  0  0
    1.7301   53.2145   20.9772 O   0  0  0  0  0  0  0  0  0  0  0  0
    1.1869   51.9544   21.4792 O   0  0  0  0  0  0  0  0  0  0  0  0
    2.1982   50.9644   21.2489 C   0  0  0  0  0  0  0  0  0  0  0  0
    5.3349   56.4269   21.0701 O   0  0  0  0  0  0  0  0  0  0  0  0
    1.1992   54.9848   24.1783 C   0  0  0  0  0  0  0  0  0  0  0  0
  1 12  1  0
  1 17  1  0
  1 23  1  0
  2 10  1  0
  2 19  2  0
  2 23  1  0
  3  8  1  0
  3 16  1  0
  3 17  1  0
  4 15  1  0
  4 16  1  0
  5 24  4  0
  5 29  4  0
  6 10  1  0
  7 15  4  0
  7 24  4  0
  8 21  1  0
  8 23  1  0
  9 18  1  0
  9 27  1  0
 11 18  1  0
 13 15  4  0
 13 20  1  0
 13 29  4  0
 14 21  1  0
 16 28  2  0
 22 27  1  0
 24 25  1  0
 25 26  1  0
 26 27  1  0
M  END
$$$$

     RDKit          3D

 27 28  0  0  0  0  0  0  0  0999 V2000
    3.1004   52.9253   23.3585 C   0  0  0  0  0  0  0  0  0  0  0  0
    7.1963   59.5753   21.0507 C   0  0  0  0  0  0  0  0  0  0  0  0
    4.8876   56.9166   22.1531 C   0  0  0  0  0  0  0  0  0  0  0  0
    5.3010   61.3148   21.1209 C   0  0  0  0  0  0  0  0  0  0  0  0
    6.6157   58.2338   20.9886 N   0  0  0  0  0  0  0  0  0  0  0  0
    1.9414   55.4562   23.2139 C   0  0  0  0  0  0  0  0  0  0  0  0
    1.1438   54.3137   23.1194 C   0  0  0  0  0  0  0  0  0  0  0  0
    5.7402   59.6011   24.2762 C   0  0  0  0  0  0  0  0  0  0  0  0
    4.1929   56.5797   23.4812 C   0  0  0  0  0  0  0  0  0  0  0  0
    5.4975   62.5371   21.1098 O   0  0  0  0  0  0  0  0  0  0  0  0
    3.6571   61.6610   19.3725 O   0  0  0  0  0  0  0  0  0  0  0  0
    5.1080   60.8344   24.7313 N   0  0  0  0  0  0  0  0  0  0  0  0
    2.0943   52.8704   19.8782 O   0  0  0  0  0  0  0  0  0  0  0  0
    1.3049   50.8471   20.7286 C   0  0  0  0  0  0  0  0  0  0  0  0
    5.9970   57.9916   22.3121 C   0  0  0  0  0  0  0  0  0  0  0  0
    0.3013   51.5345   21.6703 C   0  0  0  0  0  0  0  0  0  0  0  0
    0.6633   50.4643   19.3965 C   0  0  0  0  0  0  0  0  0  0  0  0
    7.5376   60.1217   19.6713 C   0  0  0  0  0  0  0  0  0  0  0  0
    3.9235   57.4039   21.2014 O   0  0  0  0  0  0  0  0  0  0  0  0
    2.4922   51.6147   20.5024 O   0  0  0  0  0  0  0  0  0  0  0  0
    0.8513   51.8044   23.0782 C   0  0  0  0  0  0  0  0  0  0  0  0
    4.1319   60.7261   20.3360 C   0  0  0  0  0  0  0  0  0  0  0  0
    3.3266   55.3432   23.3823 C   0  0  0  0  0  0  0  0  0  0  0  0
    1.7155   53.0367   23.1892 C   0  0  0  0  0  0  0  0  0  0  0  0
    5.4865   59.3739   22.7773 C   0  0  0  0  0  0  0  0  0  0  0  0
    6.2329   60.3986   21.9028 C   0  0  0  0  0  0  0  0  0  0  0  0
    3.8994   54.0673   23.4500 C   0  0  0  0  0  0  0  0  0  0  0  0
  1 24  4  0
  1 27  4  0
  2  5  1  0
  2 18  1  0
  2 26  1  0
  3  9  1  0
  3 15  1  0
  3 19  1  0
  4 10  2  0
  4 22  1  0
  4 26  1  0
  5 15  1  0
  6  7  4  0
  6 23  4  0
  7 24  4  0
  8 12  1  0
  8 25  1  0
  9 23  1  0
 11 22  1  0
 13 20  1  0
 14 16  1  0
 14 17  1  0
 14 20  1  0
 15 25  1  0
 16 21  1  0
 21 24  1  0
 23 27  4  0
 25 26  1  0
M  END
$$$$

     RDKit          3D

 27 29  0  0  0  0  0  0  0  0999 V2000
    5.0117   55.5411   19.2037 O   0  0  0  0  0  0  0  0  0  0  0  0
    5.1374   61.0551   21.9663 C   0  0  0  0  0  0  0  0  0  0  0  0
    7.7103   59.5902   21.6073 C   0  0  0  0  0  0  0  0  0  0  0  0
    4.0987   55.7013   21.4002 C   0  0  0  0  0  0  0  0  0  0  0  0
    2.9037   53.9179   22.6733 C   0  0  0  0  0  0  0  0  0  0  0  0
    4.2353   56.3978   20.0592 C   0  0  0  0  0  0  0  0  0  0  0  0
    4.1249   59.0674   20.5494 C   0  0  0  0  0  0  0  0  0  0  0  0
    6.4815   59.3575   20.7391 C   0  0  0  0  0  0  0  0  0  0  0  0
    1.2505   52.4358   21.5499 C   0  0  0  0  0  0  0  0  0  0  0  0
    1.2894   52.6576   24.0557 C   0  0  0  0  0  0  0  0  0  0  0  0
    3.7296   54.2349   23.7612 C   0  0  0  0  0  0  0  0  0  0  0  0
    4.8911   55.9579   22.5158 C   0  0  0  0  0  0  0  0  0  0  0  0
    4.8044   57.8234   19.8890 C   0  0  0  0  0  0  0  0  0  0  0  0
    2.6632   58.9607   21.0053 C   0  0  0  0  0  0  0  0  0  0  0  0
    1.8928   51.4515   24.7641 C   0  0  0  0  0  0  0  0  0  0  0  0
    3.9804   61.3497   22.7489 O   0  0  0  0  0  0  0  0  0  0  0  0
    4.7054   55.2332   23.6894 C   0  0  0  0  0  0  0  0  0  0  0  0
    0.1257   53.2637   21.3417 O   0  0  0  0  0  0  0  0  0  0  0  0
    0.7971   50.9843   21.6194 C   0  0  0  0  0  0  0  0  0  0  0  0
    6.3753   61.3708   22.8380 C   0  0  0  0  0  0  0  0  0  0  0  0
    3.1275   54.6711   21.5035 C   0  0  0  0  0  0  0  0  0  0  0  0
    6.3724   62.7617   23.1673 O   0  0  0  0  0  0  0  0  0  0  0  0
    6.3238   57.9592   20.1588 C   0  0  0  0  0  0  0  0  0  0  0  0
    7.6948   61.0234   22.1446 C   0  0  0  0  0  0  0  0  0  0  0  0
    1.9370   52.9053   22.7535 N   0  0  0  0  0  0  0  0  0  0  0  0
    2.3751   58.5090   22.4272 C   0  0  0  0  0  0  0  0  0  0  0  0
    5.1851   59.5865   21.5331 C   0  0  0  0  0  0  0  0  0  0  0  0
  1  6  1  0
  2 16  1  0
  2 20  1  0
  2 27  1  0
  3  8  1  0
  3 24  1  0
  4  6  1  0
  4 12  4  0
  4 21  4  0
  5 11  4  0
  5 21  4  0
  5 25  1  0
  6 13  1  0
  7 13  1  0
  7 14  1  0
  7 27  1  0
  8 23  1  0
  8 27  1  0
  9 18  1  0
  9 19  1  0
  9 25  1  0
 10 15  1  0
 10 25  1  0
 11 17  4  0
 12 17  4  0
 13 23  1  0
 14 26  1  0
 20 22  1  0
 20 24  1  0
M  END
$$$$

     RDKit          3D

 28 30  0  0  0  0  0  0  0  0999 V2000
    3.9846   56.5262   23.6129 N   0  0  0  0  0  0  0  0  0  0  0  0
    4.6671   56.3060   21.4028 O   0  0  0  0  0  0  0  0  0  0  0  0
    5.4312   61.1060   20.3064 C   0  0  0  0  0  0  0  0  0  0  0  0
    5.6133   58.0970   22.7385 C   0  0  0  0  0  0  0  0  0  0  0  0
    1.7387   53.5953   22.9864 C   0  0  0  0  0  0  0  0  0  0  0  0
    2.4409   55.3642   25.0204 C   0  0  0  0  0  0  0  0  0  0  0  0
    6.7859   59.0284   20.8802 C   0  0  0  0  0  0  0  0  0  0  0  0
    3.7132   59.8624   22.8939 C   0  0  0  0  0  0  0  0  0  0  0  0
    0.4544   50.6768   20.2972 O   0  0  0  0  0  0  0  0  0  0  0  0
    1.2921   52.6671   22.0872 O   0  0  0  0  0  0  0  0  0  0  0  0
    6.3079   61.1542   19.0802 C   0  0  0  0  0  0  0  0  0  0  0  0
    5.6411   59.8778   21.1681 C   0  0  0  0  0  0  0  0  0  0  0  0
    7.5569   59.1910   19.8003 C   0  0  0  0  0  0  0  0  0  0  0  0
    1.2487   53.4758   19.8104 C   0  0  0  0  0  0  0  0  0  0  0  0
    2.5433   50.1272   21.3189 C   0  0  0  0  0  0  0  0  0  0  0  0
    4.3752   62.3883   20.6069 S   0  0  0  0  0  0  0  0  0  0  0  0
    1.4961   54.3770   25.2746 C   0  0  0  0  0  0  0  0  0  0  0  0
    2.8069   56.2509   26.0025 O   0  0  0  0  0  0  0  0  0  0  0  0
    4.0098   60.5881   24.1978 C   0  0  0  0  0  0  0  0  0  0  0  0
    1.8269   51.0765   20.3644 C   0  0  0  0  0  0  0  0  0  0  0  0
    4.7163   56.8722   22.4910 C   0  0  0  0  0  0  0  0  0  0  0  0
    7.2789   60.2540   18.8690 C   0  0  0  0  0  0  0  0  0  0  0  0
    1.1485   53.4955   24.2514 C   0  0  0  0  0  0  0  0  0  0  0  0
    1.9459   52.5538   20.8106 C   0  0  0  0  0  0  0  0  0  0  0  0
    2.6819   54.5976   22.7430 C   0  0  0  0  0  0  0  0  0  0  0  0
    6.9179   57.9838   21.9402 C   0  0  0  0  0  0  0  0  0  0  0  0
    4.9646   59.3746   22.2207 C   0  0  0  0  0  0  0  0  0  0  0  0
    3.0431   55.4859   23.7590 C   0  0  0  0  0  0  0  0  0  0  0  0
  1 21  1  0
  1 28  1  0
  2 21  2  0
  3 11  1  0
  3 12  1  0
  3 16  2  0
  4 21  1  0
  4 26  1  0
  4 27  1  0
  5 10  1  0
  5 23  4  0
  5 25  4  0
  6 17  4  0
  6 18  1  0
  6 28  4  0
  7 12  1  0
  7 13  2  0
  7 26  1  0
  8 19  1  0
  8 27  1  0
  9 20  1  0
 10 24  1  0
 11 22  2  0
 12 27  2  0
 13 22  1  0
 14 24  1  0
 15 20  1  0
 17 23  4  0
 20 24  1  0
 25 28  4  0
M  END
$$$$

     RDKit          2D

  1  0  0  0  0  0  0  0  0  0999 V2000
    0.0000    0.0000    0.0000 C   0  0  0  0  0  0  0  0  0  0  0  0
M  END
$$$$

     RDKit          2D

  1  0  0  0  0  0  0  0  0  0999 V2000
    0.0000    0.0000    0.0000 C   0  0  0  0  0  0  0  0  0  0  0  0
M  END
$$$$

     RDKit          3D

 28 29  0  0  0  0  0  0  0  0999 V2000
    5.9193   57.9852   21.2357 C   0  0  0  0  0  0  0  0  0  0  0  0
    6.5808   58.7442   20.0662 C   0  0  0  0  0  0  0  0  0  0  0  0
    1.8389   57.9787   22.7740 N   0  0  0  0  0  0  0  0  0  0  0  0
    1.6571   52.8941   21.7582 S   0  0  0  0  0  4  0  0  0  0  0  0
    6.8019   56.9155   21.6129 O   0  0  0  0  0  0  0  0  0  0  0  0
    2.2448   55.0802   25.0468 C   0  0  0  0  0  0  0  0  0  0  0  0
    4.1994   51.7482   18.8153 C   0  0  0  0  0  0  0  0  0  0  0  0
    1.9717   56.6267   23.1560 C   0  0  0  0  0  0  0  0  0  0  0  0
    4.5166   57.4273   20.9282 C   0  0  0  0  0  0  0  0  0  0  0  0
    4.2915   52.1939   21.7421 C   0  0  0  0  0  0  0  0  0  0  0  0
    2.1759   56.3670   24.5254 C   0  0  0  0  0  0  0  0  0  0  0  0
    2.0868   53.9973   24.1895 C   0  0  0  0  0  0  0  0  0  0  0  0
    1.4055   59.5918   21.2542 O   0  0  0  0  0  0  0  0  0  0  0  0
    5.5838   58.8531   22.4732 C   0  0  0  0  0  0  0  0  0  0  0  0
    7.9492   59.0369   20.3592 O   0  0  0  0  0  0  0  0  0  0  0  0
    4.3346   56.7687   19.5655 C   0  0  0  0  0  0  0  0  0  0  0  0
    6.5735   59.9478   22.8435 C   0  0  0  0  0  0  0  0  0  0  0  0
    2.1059   58.3621   21.3926 C   0  0  0  0  0  0  0  0  0  0  0  0
    3.0444   52.3560   20.9815 N   0  0  0  0  0  0  0  0  0  0  0  0
    0.5264   53.2494   20.6800 O   0  0  0  0  0  0  0  0  0  0  0  0
    1.0391   51.6419   22.5428 O   0  0  0  0  0  0  0  0  0  0  0  0
    2.3242   57.4266   25.3822 O   0  0  0  0  0  0  0  0  0  0  0  0
    1.7711   55.5308   22.3176 C   0  0  0  0  0  0  0  0  0  0  0  0
    3.2500   52.6794   19.5625 C   0  0  0  0  0  0  0  0  0  0  0  0
    5.1782   53.4321   21.8040 C   0  0  0  0  0  0  0  0  0  0  0  0
    3.6175   58.6501   21.1283 C   0  0  0  0  0  0  0  0  0  0  0  0
    4.2409   59.4370   22.2344 N   0  0  0  0  0  0  0  0  0  0  0  0
    1.8509   54.2339   22.8370 C   0  0  0  0  0  0  0  0  0  0  0  0
  1  2  1  0
  1  5  1  0
  1  9  1  0
  1 14  1  0
  2 15  1  0
  3  8  1  0
  3 18  1  0
  4 19  1  0
  4 20  1  0
  4 21  1  0
  4 28  1  0
  6 11  4  0
  6 12  4  0
  7 24  1  0
  8 11  4  0
  8 23  4  0
  9 16  1  0
  9 26  1  0
 10 19  1  0
 10 25  1  0
 11 22  1  0
 12 28  4  0
 13 18  1  0
 14 17  1  0
 14 27  1  0
 18 26  1  0
 19 24  1  0
 23 28  4  0
 26 27  1  0
M  END
$$$$

     RDKit          3D

 29 32  0  0  0  0  0  0  0  0999 V2000
    5.8109   61.1181   20.8033 C   0  0  0  0  0  0  0  0  0  0  0  0
    1.0682   54.3697   25.0857 C   0  0  0  0  0  0  0  0  0  0  0  0
    2.4173   55.0281   24.9098 C   0  0  0  0  0  0  0  0  0  0  0  0
    4.6920   57.6799   21.9999 C   0  0  0  0  0  0  0  0  0  0  0  0
    4.3242   60.4523   23.8960 N   0  0  0  0  0  0  0  0  0  0  0  0
    0.2441   53.8817   21.0725 S   0  0  0  0  0  0  0  0  0  0  0  0
    0.8108   54.6546   22.6053 C   0  0  0  0  0  0  0  0  0  0  0  0
    3.1786   54.7436   23.6038 C   0  0  0  0  0  0  0  0  0  0  0  0
    5.8319   61.8963   21.9216 N   0  0  0  0  0  0  0  0  0  0  0  0
    0.5819   53.7219   23.7955 C   0  0  0  0  0  0  0  0  0  0  0  0
    5.4906   56.8937   21.2211 N   0  0  0  0  0  0  0  0  0  0  0  0
    2.9285   51.7505   21.1947 C   0  0  0  0  0  0  0  0  0  0  0  0
    6.4258   58.8443   20.1981 C   0  0  0  0  0  0  0  0  0  0  0  0
    1.6410   54.1498   20.2063 O   0  0  0  0  0  0  0  0  0  0  0  0
    3.7174   59.9384   22.6677 C   0  0  0  0  0  0  0  0  0  0  0  0
    6.0036   61.5930   19.6914 O   0  0  0  0  0  0  0  0  0  0  0  0
    2.8872   55.7520   25.7900 O   0  0  0  0  0  0  0  0  0  0  0  0
    3.6394   53.0889   21.1092 C   0  0  0  0  0  0  0  0  0  0  0  0
    3.7977   50.5002   21.3022 C   0  0  0  0  0  0  0  0  0  0  0  0
    1.6991   57.2586   21.7253 O   0  0  0  0  0  0  0  0  0  0  0  0
    3.7724   56.9355   22.9547 C   0  0  0  0  0  0  0  0  0  0  0  0
    2.7858   54.3652   21.0506 C   0  0  0  0  0  0  0  0  0  0  0  0
    4.9806   53.2006   21.0425 C   0  0  0  0  0  0  0  0  0  0  0  0
    6.3242   57.4821   20.3436 C   0  0  0  0  0  0  0  0  0  0  0  0
    4.6871   59.0839   21.8921 C   0  0  0  0  0  0  0  0  0  0  0  0
    2.2874   54.9851   22.3791 C   0  0  0  0  0  0  0  0  0  0  0  0
    2.4887   56.4907   22.2657 C   0  0  0  0  0  0  0  0  0  0  0  0
    4.3275   55.6605   23.4730 N   0  0  0  0  0  0  0  0  0  0  0  0
    5.6147   59.6556   20.9936 C   0  0  0  0  0  0  0  0  0  0  0  0
  1  9  1  0
  1 16  2  0
  1 29  1  0
  2  3  1  0
  2 10  1  0
  3  8  1  0
  3 17  2  0
  4 11  4  0
  4 21  1  0
  4 25  4  0
  5 15  1  0
  6  7  1  0
  6 14  1  0
  7 10  1  0
  7 26  1  0
  8 26  1  0
  8 28  1  0
 11 24  4  0
 12 18  1  0
 12 19  1  0
 13 24  4  0
 13 29  4  0
 14 22  1  0
 15 25  1  0
 18 22  1  0
 18 23  2  0
 20 27  2  0
 21 27  1  0
 21 28  1  0
 22 26  1  0
 25 29  4  0
 26 27  1  0
M  END
$$$$

     RDKit          3D

 26 27  0  0  0  0  0  0  0  0999 V2000
    4.4388   56.5200   20.9109 C   0  0  0  0  0  0  0  0  0  0  0  0
    4.3524   56.3478   22.2758 N   0  0  0  0  0  0  0  0  0  0  0  0
    5.9486   59.9700   20.9980 C   0  0  2  0  0  0  0  0  0  0  0  0
    3.7914   55.9240   20.0542 O   0  0  0  0  0  0  0  0  0  0  0  0
    4.7923   59.0223   20.5858 C   0  0  1  0  0  0  0  0  0  0  0  0
    1.9347   50.9204   23.1024 C   0  0  0  0  0  0  0  0  0  0  0  0
    8.1154   59.4116   22.3564 C   0  0  0  0  0  0  0  0  0  0  0  0
    2.5335   54.6826   22.4401 C   0  0  0  0  0  0  0  0  0  0  0  0
    4.1290   59.3929   19.2492 C   0  0  0  0  0  0  0  0  0  0  0  0
    3.7060   55.4533   24.4013 C   0  0  0  0  0  0  0  0  0  0  0  0
    1.9145   50.6966   19.9673 C   0  0  0  0  0  0  0  0  0  0  0  0
    5.5241   62.1522   22.1769 C   0  0  0  0  0  0  0  0  0  0  0  0
    1.7738   53.8366   23.2495 C   0  0  0  0  0  0  0  0  0  0  0  0
    6.5345   57.7152   21.5118 N   0  0  0  0  0  0  0  0  0  0  0  0
    5.1517   62.8654   23.2804 O   0  0  0  0  0  0  0  0  0  0  0  0
    4.6773   56.2531   24.9487 O   0  0  0  0  0  0  0  0  0  0  0  0
    1.8333   51.9878   20.7685 C   0  0  0  0  0  0  0  0  0  0  0  0
    0.7656   53.0807   22.7196 O   0  0  0  0  0  0  0  0  0  0  0  0
    3.3883   60.7213   19.2958 C   0  0  0  0  0  0  0  0  0  0  0  0
    1.1546   51.8166   22.1374 C   0  0  2  0  0  0  0  0  0  0  0  0
    7.1460   59.0227   21.2494 C   0  0  1  0  0  0  0  0  0  0  0  0
    3.5225   55.4837   23.0096 C   0  0  0  0  0  0  0  0  0  0  0  0
    2.9198   54.6426   25.2173 C   0  0  0  0  0  0  0  0  0  0  0  0
    1.9413   53.8388   24.6349 C   0  0  0  0  0  0  0  0  0  0  0  0
    5.4326   57.6288   20.5206 C   0  0  1  0  0  0  0  0  0  0  0  0
    5.5426   60.8176   22.1803 C   0  0  0  0  0  0  0  0  0  0  0  0
  1  2  1  0
  1  4  2  0
 25  1  1  1
  2 22  1  0
  3  5  1  0
  3 21  1  0
  3 26  1  1
  5  9  1  6
  5 25  1  0
 20  6  1  1
 21  7  1  1
  8 13  4  0
  8 22  4  0
  9 19  1  0
 10 16  1  0
 10 22  4  0
 10 23  4  0
 11 17  1  0
 12 15  1  0
 12 26  2  3
 13 18  1  0
 13 24  4  0
 14 21  1  0
 14 25  1  0
 17 20  1  0
 18 20  1  0
 23 24  4  0
M  END
$$$$

     RDKit          3D

 32 34  0  0  0  0  0  0  0  0999 V2000
    2.0537   51.3964   20.8837 N   0  0  0  0  0  0  0  0  0  0  0  0
    2.8602   55.7161   23.3527 C   0  0  0  0  0  0  0  0  0  0  0  0
    5.1058   58.4457   22.1268 C   0  0  0  0  0  0  0  0  0  0  0  0
    1.7698   53.1835   23.9475 C   0  0  0  0  0  0  0  0  0  0  0  0
    2.8251   55.2165   24.6709 C   0  0  0  0  0  0  0  0  0  0  0  0
    6.5214   62.0699   19.5958 C   0  0  0  0  0  0  0  0  0  0  0  0
    1.1080   52.6920   21.3829 S   0  0  0  0  0  4  0  0  0  0  0  0
    4.0847   57.2960   21.9359 C   0  0  0  0  0  0  0  0  0  0  0  0
    6.7924   60.5563   21.8753 C   0  0  0  0  0  0  0  0  0  0  0  0
    4.4290   59.8850   22.4092 C   0  0  0  0  0  0  0  0  0  0  0  0
    2.3016   54.9329   22.3398 C   0  0  0  0  0  0  0  0  0  0  0  0
    4.3652   50.5445   20.2999 C   0  0  0  0  0  0  0  0  0  0  0  0
    4.1984   60.3623   23.8729 C   0  0  0  0  0  0  0  0  0  0  0  0
    6.0659   62.6008   18.3624 O   0  0  0  0  0  0  0  0  0  0  0  0
    5.2361   62.4784   20.9049 S   0  0  0  0  0  0  0  0  0  0  0  0
    1.3428   49.5123   22.1435 N   0  0  0  0  0  0  0  0  0  0  0  0
    8.5489   59.1617   20.7588 C   0  0  0  0  0  0  0  0  0  0  0  0
    2.2967   53.9623   24.9741 C   0  0  0  0  0  0  0  0  0  0  0  0
   -0.3371   52.1722   21.8470 O   0  0  0  0  0  0  0  0  0  0  0  0
    3.1378   57.6633   20.9600 O   0  0  0  0  0  0  0  0  0  0  0  0
    6.8829   60.5411   19.3878 C   0  0  0  0  0  0  0  0  0  0  0  0
    1.7732   53.6774   22.6445 C   0  0  0  0  0  0  0  0  0  0  0  0
    3.3487   57.0255   23.1467 N   0  0  0  0  0  0  0  0  0  0  0  0
    3.3642   56.0018   25.6616 O   0  0  0  0  0  0  0  0  0  0  0  0
    5.1216   59.7844   24.9455 C   0  0  0  0  0  0  0  0  0  0  0  0
    5.3099   60.8514   21.6283 C   0  0  0  0  0  0  0  0  0  0  0  0
    0.7905   53.5847   20.0912 O   0  0  0  0  0  0  0  0  0  0  0  0
    2.7386   60.1599   24.3036 C   0  0  0  0  0  0  0  0  0  0  0  0
    1.4684   50.0667   20.8096 C   0  0  0  0  0  0  0  0  0  0  0  0
    3.4849   51.3739   21.2294 C   0  0  0  0  0  0  0  0  0  0  0  0
    7.1026   59.6599   20.6983 C   0  0  0  0  0  0  0  0  0  0  0  0
    6.0887   58.4344   20.8309 C   0  0  0  0  0  0  0  0  0  0  0  0
  1  7  1  0
  1 29  1  0
  1 30  1  0
  2  5  4  0
  2 11  4  0
  2 23  1  0
  3  8  1  0
  3 10  1  0
  3 32  1  0
  4 18  4  0
  4 22  4  0
  5 18  4  0
  5 24  1  0
  6 14  1  0
  6 15  1  0
  6 21  1  0
  7 19  1  0
  7 22  1  0
  7 27  1  0
  8 20  1  0
  8 23  1  0
  9 26  1  0
  9 31  1  0
 10 13  1  0
 10 26  1  0
 11 22  4  0
 12 30  1  0
 13 25  1  0
 13 28  1  0
 15 26  1  0
 16 29  1  0
 17 31  1  0
 21 31  1  0
 31 32  1  0
M  END
$$$$

     RDKit          3D

 28 29  0  0  0  0  0  0  0  0999 V2000
    4.4250   56.7140   22.0123 C   0  0  0  0  0  0  0  0  0  0  0  0
    6.4029   57.7018   20.8695 N   0  0  0  0  0  0  0  0  0  0  0  0
    3.6608   56.6587   23.1618 N   0  0  0  0  0  0  0  0  0  0  0  0
    5.1762   61.1116   20.9070 O   0  0  0  0  0  0  0  0  0  0  0  0
    1.9554   55.9816   24.7145 C   0  0  0  0  0  0  0  0  0  0  0  0
    5.9227   59.9628   21.3090 C   0  0  0  0  0  0  0  0  0  0  0  0
    1.5414   52.5737   21.2254 O   0  0  0  0  0  0  0  0  0  0  0  0
    2.0735   54.8539   22.5634 C   0  0  0  0  0  0  0  0  0  0  0  0
    3.3998   51.3019   21.8096 C   0  0  0  0  0  0  0  0  0  0  0  0
    5.1026   59.1532   22.3291 C   0  0  0  0  0  0  0  0  0  0  0  0
    1.9669   51.2110   21.5075 N   0  0  0  0  0  0  0  0  0  0  0  0
    5.6474   59.2406   24.8447 C   0  0  0  0  0  0  0  0  0  0  0  0
    5.2087   63.2659   20.1385 O   0  0  0  0  0  0  0  0  0  0  0  0
    6.0730   58.9494   20.1694 C   0  0  0  0  0  0  0  0  0  0  0  0
    5.9954   62.2499   20.7218 C   0  0  0  0  0  0  0  0  0  0  0  0
    1.9789   48.9831   20.4006 C   0  0  0  0  0  0  0  0  0  0  0  0
    5.6050   57.7081   22.1281 C   0  0  0  0  0  0  0  0  0  0  0  0
    0.5088   54.0971   24.2480 C   0  0  0  0  0  0  0  0  0  0  0  0
    1.0574   53.9848   22.9710 C   0  0  0  0  0  0  0  0  0  0  0  0
    1.6227   50.4611   20.2991 C   0  0  0  0  0  0  0  0  0  0  0  0
    7.1599   59.3013   19.1665 C   0  0  0  0  0  0  0  0  0  0  0  0
    0.5221   53.0024   22.1703 O   0  0  0  0  0  0  0  0  0  0  0  0
    2.4203   56.9690   25.6168 N   0  0  0  0  0  0  0  0  0  0  0  0
    0.9681   55.0806   25.1240 C   0  0  0  0  0  0  0  0  0  0  0  0
    2.5567   55.8244   23.4441 C   0  0  0  0  0  0  0  0  0  0  0  0
    4.2998   51.8622   20.7113 C   0  0  0  0  0  0  0  0  0  0  0  0
    4.2448   56.0595   20.9870 O   0  0  0  0  0  0  0  0  0  0  0  0
    5.1666   59.7710   23.7129 C   0  0  0  0  0  0  0  0  0  0  0  0
  1  3  1  0
  1 17  1  0
  1 27  2  0
  2 14  1  0
  2 17  1  0
  3 25  1  0
  4  6  1  0
  4 15  1  0
  5 23  1  0
  5 24  4  0
  5 25  4  0
  6 10  1  0
  6 14  1  0
  7 11  1  0
  7 22  1  0
  8 19  4  0
  8 25  4  0
  9 11  1  0
  9 26  1  0
 10 17  1  0
 10 28  1  0
 11 20  1  0
 12 28  2  0
 13 15  1  0
 14 21  1  0
 16 20  1  0
 18 19  4  0
 18 24  4  0
 19 22  1  0
M  END
$$$$

     RDKit          3D

 27 27  0  0  0  0  0  0  0  0999 V2000
    4.9623   55.7659   22.2583 C   0  0  1  0  0  0  0  0  0  0  0  0
    3.3738   55.6052   24.2395 C   0  0  0  0  0  0  0  0  0  0  0  0
    4.3843   58.3065   22.0435 C   0  0  1  0  0  0  0  0  0  0  0  0
    3.7335   55.0057   22.8641 C   0  0  1  0  0  0  0  0  0  0  0  0
   -0.1698   55.5250   24.6301 C   0  0  0  0  0  0  0  0  0  0  0  0
    5.9534   57.2574   20.5364 N   0  0  0  0  0  0  0  0  0  0  0  0
    2.2441   56.1598   24.7175 C   0  0  0  0  0  0  0  0  0  0  0  0
    2.1790   52.2623   21.4184 C   0  0  1  0  0  0  0  0  0  0  0  0
    4.0812   61.1589   20.5914 O   0  0  0  0  0  0  0  0  0  0  0  0
    0.0301   52.5896   20.5949 O   0  0  0  0  0  0  0  0  0  0  0  0
    3.7184   53.5765   20.0103 C   0  0  0  0  0  0  0  0  0  0  0  0
    5.8383   54.8249   21.5922 O   0  0  0  0  0  0  0  0  0  0  0  0
    7.7631   58.9227   20.3839 C   0  0  0  0  0  0  0  0  0  0  0  0
    2.9073   58.7021   21.9243 C   0  0  0  0  0  0  0  0  0  0  0  0
    2.9729   51.7210   22.6027 C   0  0  0  0  0  0  0  0  0  0  0  0
    3.4009   52.9317   18.6624 C   0  0  0  0  0  0  0  0  0  0  0  0
    0.7901   52.2764   21.8087 O   0  0  0  0  0  0  0  0  0  0  0  0
    5.7692   60.2824   22.5120 O   0  0  0  0  0  0  0  0  0  0  0  0
    5.0001   60.1200   20.2409 C   0  0  0  0  0  0  0  0  0  0  0  0
    4.7071   56.9783   21.3024 C   0  0  1  0  0  0  0  0  0  0  0  0
    2.5428   54.6815   21.9083 C   0  0  0  0  0  0  0  0  0  0  0  0
    4.4402   55.4567   25.1297 O   0  0  0  0  0  0  0  0  0  0  0  0
    2.4783   59.7225   22.9699 C   0  0  0  0  0  0  0  0  0  0  0  0
    0.9106   56.4497   24.0884 C   0  0  0  0  0  0  0  0  0  0  0  0
    5.4329   59.3230   21.4948 C   0  0  2  0  0  0  0  0  0  0  0  0
    6.6136   58.3699   21.2137 C   0  0  1  0  0  0  0  0  0  0  0  0
    2.5711   53.5909   20.9117 N   0  0  0  0  0  0  0  0  0  0  0  0
  1  4  1  0
  1 12  1  6
  1 20  1  0
  2  4  1  0
  2  7  2  3
  2 22  1  0
  3 14  1  1
  3 20  1  0
  3 25  1  0
  4 21  1  6
  5 24  1  0
 20  6  1  6
  6 26  1  0
  7 24  1  0
  8 15  1  1
  8 17  1  0
  8 27  1  0
  9 19  1  0
 10 17  1  0
 11 16  1  0
 11 27  1  0
 26 13  1  6
 14 23  1  0
 25 18  1  6
 19 25  1  0
 21 27  1  0
 25 26  1  0
M  END
$$$$

     RDKit          3D

 27 29  0  0  0  0  0  0  0  0999 V2000
    7.1819   60.2241   20.9253 C   0  0  0  0  0  0  0  0  0  0  0  0
    3.6487   60.2822   21.0384 N   0  0  0  0  0  0  0  0  0  0  0  0
    5.4971   61.6278   20.1107 C   0  0  0  0  0  0  0  0  0  0  0  0
    3.2773   57.9807   21.9138 C   0  0  0  0  0  0  0  0  0  0  0  0
    1.6851   53.8537   22.2763 C   0  0  0  0  0  0  0  0  0  0  0  0
    3.0980   50.4695   22.7712 C   0  0  0  0  0  0  0  0  0  0  0  0
    2.1659   55.4771   24.4226 C   0  0  0  0  0  0  0  0  0  0  0  0
    1.3606   52.7933   20.8666 S   0  0  0  0  0  0  0  0  0  0  0  0
    2.9317   57.2764   23.0494 N   0  0  0  0  0  0  0  0  0  0  0  0
    2.2127   50.3950   21.5191 C   0  0  0  0  0  0  0  0  0  0  0  0
    5.3254   59.4567   22.5102 C   0  0  0  0  0  0  0  0  0  0  0  0
    2.1803   55.1345   22.0468 C   0  0  0  0  0  0  0  0  0  0  0  0
    4.2717   49.5033   22.7527 C   0  0  0  0  0  0  0  0  0  0  0  0
    1.6730   54.1918   24.5621 C   0  0  0  0  0  0  0  0  0  0  0  0
    8.2459   59.9694   21.4790 O   0  0  0  0  0  0  0  0  0  0  0  0
    5.8840   58.3671   23.4136 C   0  0  0  0  0  0  0  0  0  0  0  0
    3.8206   59.4009   22.2276 C   0  0  0  0  0  0  0  0  0  0  0  0
    7.7356   62.5349   20.2809 O   0  0  0  0  0  0  0  0  0  0  0  0
    2.4088   56.2908   25.4971 O   0  0  0  0  0  0  0  0  0  0  0  0
    4.9041   60.2279   20.2776 C   0  0  0  0  0  0  0  0  0  0  0  0
    1.5652   49.0229   21.3457 C   0  0  0  0  0  0  0  0  0  0  0  0
    3.1834   57.5726   20.7579 O   0  0  0  0  0  0  0  0  0  0  0  0
    1.1365   51.3343   21.6449 O   0  0  0  0  0  0  0  0  0  0  0  0
    1.4299   53.3740   23.5184 N   0  0  0  0  0  0  0  0  0  0  0  0
    2.4268   55.9612   23.1388 C   0  0  0  0  0  0  0  0  0  0  0  0
    6.9901   61.3836   19.9616 C   0  0  0  0  0  0  0  0  0  0  0  0
    5.9137   59.4320   21.1097 C   0  0  0  0  0  0  0  0  0  0  0  0
  1 15  2  0
  1 26  1  0
  1 27  1  0
  2 17  1  0
  2 20  1  0
  3 20  1  0
  3 26  1  0
  4  9  1  0
  4 17  1  0
  4 22  2  0
  5  8  1  0
  5 12  4  0
  5 24  4  0
  6 10  1  0
  6 13  1  0
  7 14  4  0
  7 19  1  0
  7 25  4  0
  8 23  1  0
  9 25  1  0
 10 21  1  0
 10 23  1  0
 11 16  1  0
 11 17  1  0
 11 27  1  0
 12 25  4  0
 14 24  4  0
 18 26  1  0
 20 27  1  0
M  END
$$$$

     RDKit          3D

 27 28  0  0  0  0  0  0  0  0999 V2000
    5.3018   58.1550   22.0454 C   0  0  0  0  0  0  0  0  0  0  0  0
    4.4716   56.8540   21.8855 C   0  0  0  0  0  0  0  0  0  0  0  0
    2.8032   55.5419   23.2392 C   0  0  0  0  0  0  0  0  0  0  0  0
    1.2488   52.4204   21.5894 C   0  0  0  0  0  0  0  0  0  0  0  0
    3.4562   51.3103   21.7013 C   0  0  0  0  0  0  0  0  0  0  0  0
    0.9481   53.5435   23.8856 C   0  0  0  0  0  0  0  0  0  0  0  0
    2.1605   55.5313   24.4852 C   0  0  0  0  0  0  0  0  0  0  0  0
    6.1374   59.0669   20.0320 C   0  0  0  0  0  0  0  0  0  0  0  0
    1.5877   53.5086   22.6310 C   0  0  0  0  0  0  0  0  0  0  0  0
    6.7290   62.3816   20.4880 C   0  0  0  0  0  0  0  0  0  0  0  0
    0.6090   51.3184   22.2295 O   0  0  0  0  0  0  0  0  0  0  0  0
    0.1895   53.0423   20.6557 C   0  0  0  0  0  0  0  0  0  0  0  0
    4.4704   56.1843   20.8567 O   0  0  0  0  0  0  0  0  0  0  0  0
    2.1273   51.0666   19.7311 C   0  0  0  0  0  0  0  0  0  0  0  0
    3.7108   56.5956   23.0138 N   0  0  0  0  0  0  0  0  0  0  0  0
    4.4581   60.2254   24.1307 C   0  0  0  0  0  0  0  0  0  0  0  0
    7.4252   63.3609   21.2511 O   0  0  0  0  0  0  0  0  0  0  0  0
    7.3777   59.4229   19.2305 C   0  0  0  0  0  0  0  0  0  0  0  0
    1.2359   54.5457   24.8135 C   0  0  0  0  0  0  0  0  0  0  0  0
    2.4393   51.9436   20.8601 N   0  0  0  0  0  0  0  0  0  0  0  0
    6.4763   58.1594   21.1372 N   0  0  0  0  0  0  0  0  0  0  0  0
    2.4599   56.5314   25.3787 O   0  0  0  0  0  0  0  0  0  0  0  0
    6.2214   61.2823   21.4208 C   0  0  0  0  0  0  0  0  0  0  0  0
    2.5073   54.5362   22.3190 C   0  0  0  0  0  0  0  0  0  0  0  0
    3.7271   60.1103   22.7991 C   0  0  0  0  0  0  0  0  0  0  0  0
    4.4551   59.3812   21.6573 C   0  0  0  0  0  0  0  0  0  0  0  0
    5.3652   60.2144   20.7150 C   0  0  0  0  0  0  0  0  0  0  0  0
  1  2  1  0
  1 21  1  0
  1 26  1  0
  2 13  2  0
  2 15  1  0
  3  7  4  0
  3 15  1  0
  3 24  4  0
  4  9  1  0
  4 11  1  0
  4 12  1  0
  4 20  1  0
  5 20  1  0
  6  9  4  0
  6 19  4  0
  7 19  4  0
  7 22  1  0
  8 18  1  0
  8 21  1  0
  8 27  1  0
  9 24  4  0
 10 17  1  0
 10 23  1  0
 14 20  1  0
 16 25  1  0
 23 27  1  0
 25 26  1  0
 26 27  1  0
M  END
$$$$

     RDKit          2D

  1  0  0  0  0  0  0  0  0  0999 V2000
    0.0000    0.0000    0.0000 C   0  0  0  0  0  0  0  0  0  0  0  0
M  END
$$$$

     RDKit          2D

  1  0  0  0  0  0  0  0  0  0999 V2000
    0.0000    0.0000    0.0000 C   0  0  0  0  0  0  0  0  0  0  0  0
M  END
$$$$

     RDKit          3D

 26 26  0  0  0  0  0  0  0  0999 V2000
    2.3056   55.9960   24.0574 C   0  0  0  0  0  0  0  0  0  0  0  0
    5.4896   59.1046   22.1044 C   0  0  0  0  0  0  0  0  0  0  0  0
    1.7144   54.4249   21.8802 C   0  0  0  0  0  0  0  0  0  0  0  0
    0.1032   51.6513   22.2507 O   0  0  0  0  0  0  0  0  0  0  0  0
    3.9595   61.9906   20.0646 O   0  0  0  0  0  0  0  0  0  0  0  0
    2.3181   51.2957   23.0937 C   0  0  0  0  0  0  0  0  0  0  0  0
    0.8813   54.3791   22.9521 N   0  0  0  0  0  0  0  0  0  0  0  0
    1.3629   53.5434   20.6960 C   0  0  0  0  0  0  0  0  0  0  0  0
    4.4196   61.2344   22.5867 O   0  0  0  0  0  0  0  0  0  0  0  0
    3.2874   52.0631   20.3718 C   0  0  0  0  0  0  0  0  0  0  0  0
    2.8642   55.2141   21.8641 C   0  0  0  0  0  0  0  0  0  0  0  0
    1.8729   52.1650   20.7267 N   0  0  0  0  0  0  0  0  0  0  0  0
    1.4287   51.3344   21.8463 C   0  0  0  0  0  0  0  0  0  0  0  0
    4.8091   60.8657   20.2544 C   0  0  0  0  0  0  0  0  0  0  0  0
    1.1930   55.1671   24.0067 C   0  0  0  0  0  0  0  0  0  0  0  0
    7.1893   58.2279   20.2176 C   0  0  0  0  0  0  0  0  0  0  0  0
    4.2592   58.1519   22.2063 C   0  0  0  0  0  0  0  0  0  0  0  0
    3.1897   56.0088   22.9778 C   0  0  0  0  0  0  0  0  0  0  0  0
    5.5138   56.0749   22.3810 O   0  0  0  0  0  0  0  0  0  0  0  0
    6.2399   59.2297   23.4583 C   0  0  0  0  0  0  0  0  0  0  0  0
    4.8907   60.4754   21.7291 C   0  0  0  0  0  0  0  0  0  0  0  0
    2.4761   56.7520   25.1785 O   0  0  0  0  0  0  0  0  0  0  0  0
    7.3799   60.2490   23.4732 C   0  0  0  0  0  0  0  0  0  0  0  0
    3.6863   50.6624   19.9160 C   0  0  0  0  0  0  0  0  0  0  0  0
    6.4287   58.6237   21.0593 C   0  0  0  0  0  0  0  0  0  0  0  0
    4.4612   56.8321   22.9678 C   0  0  0  0  0  0  0  0  0  0  0  0
  1 15  4  0
  1 18  4  0
  1 22  1  0
  2 17  1  0
  2 20  1  0
  2 21  1  0
  2 25  1  0
  3  7  4  0
  3  8  1  0
  3 11  4  0
  4 13  1  0
  5 14  1  0
  6 13  1  0
  7 15  4  0
  8 12  1  0
  9 21  2  0
 10 12  1  0
 10 24  1  0
 11 18  4  0
 12 13  1  0
 14 21  1  0
 16 25  3  0
 17 26  1  0
 18 26  1  0
 19 26  1  0
 20 23  1  0
M  END
$$$$

     RDKit          2D

  1  0  0  0  0  0  0  0  0  0999 V2000
    0.0000    0.0000    0.0000 C   0  0  0  0  0  0  0  0  0  0  0  0
M  END
$$$$

     RDKit          3D

 28 30  0  0  0  0  0  0  0  0999 V2000
    4.6842   56.7191   22.1668 C   0  0  0  0  0  0  0  0  0  0  0  0
    4.9420   59.2451   22.5128 C   0  0  0  0  0  0  0  0  0  0  0  0
    0.7565   54.8003   24.4610 C   0  0  0  0  0  0  0  0  0  0  0  0
    3.8575   50.9056   22.5688 C   0  0  0  0  0  0  0  0  0  0  0  0
    7.4241   59.7091   19.7328 C   0  0  0  0  0  0  0  0  0  0  0  0
    1.8305   55.6735   24.3112 C   0  0  0  0  0  0  0  0  0  0  0  0
    2.5462   50.4280   21.9597 C   0  0  0  0  0  0  0  0  0  0  0  0
    5.8708   60.1097   21.6571 C   0  0  0  0  0  0  0  0  0  0  0  0
    2.4068   54.6736   22.1923 C   0  0  0  0  0  0  0  0  0  0  0  0
    6.3205   61.9862   20.0667 C   0  0  0  0  0  0  0  0  0  0  0  0
    6.3217   59.1134   20.5975 C   0  0  0  0  0  0  0  0  0  0  0  0
    2.6644   55.6224   23.1817 C   0  0  0  0  0  0  0  0  0  0  0  0
    1.0386   50.4633   19.9167 C   0  0  0  0  0  0  0  0  0  0  0  0
    5.7183   63.0544   19.3445 O   0  0  0  0  0  0  0  0  0  0  0  0
    4.9801   59.4798   25.0683 C   0  0  0  0  0  0  0  0  0  0  0  0
    2.2769   51.0556   20.5857 C   0  0  0  0  0  0  0  0  0  0  0  0
    4.8133   56.0353   21.1528 O   0  0  0  0  0  0  0  0  0  0  0  0
    6.9065   60.9853   19.0610 C   0  0  0  0  0  0  0  0  0  0  0  0
    4.6302   59.8917   23.8430 C   0  0  0  0  0  0  0  0  0  0  0  0
    1.0009   52.8241   21.4147 O   0  0  0  0  0  0  0  0  0  0  0  0
    0.5108   53.8540   23.4677 C   0  0  0  0  0  0  0  0  0  0  0  0
    2.0996   56.6159   25.2731 O   0  0  0  0  0  0  0  0  0  0  0  0
    3.7153   56.5611   23.1371 N   0  0  0  0  0  0  0  0  0  0  0  0
    2.1936   52.4845   20.6447 O   0  0  0  0  0  0  0  0  0  0  0  0
    6.7126   57.9665   21.4115 N   0  0  0  0  0  0  0  0  0  0  0  0
    1.3381   53.7825   22.3437 C   0  0  0  0  0  0  0  0  0  0  0  0
    5.6673   57.8704   22.4845 C   0  0  0  0  0  0  0  0  0  0  0  0
    5.2779   61.3476   20.9964 C   0  0  0  0  0  0  0  0  0  0  0  0
  1 17  2  0
  1 23  1  0
  1 27  1  0
  2  8  1  0
  2 19  1  0
  2 27  1  0
  3  6  4  0
  3 21  4  0
  4  7  1  0
  5 11  1  0
  5 18  1  0
  6 12  4  0
  6 22  1  0
  7 16  1  0
  8 11  1  0
  8 28  1  0
  9 12  4  0
  9 26  4  0
 10 14  1  0
 10 18  1  0
 10 28  1  0
 11 25  1  0
 12 23  1  0
 13 16  1  0
 15 19  2  0
 16 24  1  0
 20 24  1  0
 20 26  1  0
 21 26  4  0
 25 27  1  0
M  END
$$$$

     RDKit          3D

 26 27  0  0  0  0  0  0  0  0999 V2000
    3.5246   56.4070   20.1043 O   0  0  0  0  0  0  0  0  0  0  0  0
    2.6392   54.0974   24.8589 C   0  0  0  0  0  0  0  0  0  0  0  0
    5.3767   60.3986   21.8761 C   0  0  0  0  0  0  0  0  0  0  0  0
    1.8232   53.4075   22.6719 C   0  0  0  0  0  0  0  0  0  0  0  0
    3.9633   56.4818   22.3800 N   0  0  0  0  0  0  0  0  0  0  0  0
   -0.1281   51.9632   22.4559 O   0  0  0  0  0  0  0  0  0  0  0  0
    5.1697   61.8300   19.9093 O   0  0  0  0  0  0  0  0  0  0  0  0
    6.2625   58.1562   21.6370 C   0  0  0  0  0  0  0  0  0  0  0  0
    1.0291   52.4670   21.7833 C   0  0  0  0  0  0  0  0  0  0  0  0
    2.2248   50.1717   22.1106 C   0  0  0  0  0  0  0  0  0  0  0  0
    3.3038   55.1643   24.2627 C   0  0  0  0  0  0  0  0  0  0  0  0
    6.2161   59.3316   22.6161 C   0  0  0  0  0  0  0  0  0  0  0  0
    1.0250   50.7067   19.9914 C   0  0  0  0  0  0  0  0  0  0  0  0
    3.0538   59.4279   22.2519 C   0  0  0  0  0  0  0  0  0  0  0  0
    2.5103   54.4904   22.0900 C   0  0  0  0  0  0  0  0  0  0  0  0
    7.5998   59.7183   23.1058 C   0  0  0  0  0  0  0  0  0  0  0  0
    1.8423   51.3135   21.1462 C   0  0  0  0  0  0  0  0  0  0  0  0
    3.2886   50.5239   23.0469 N   0  0  0  0  0  0  0  0  0  0  0  0
    1.9019   53.2222   24.0612 C   0  0  0  0  0  0  0  0  0  0  0  0
    4.0385   56.0408   25.0239 O   0  0  0  0  0  0  0  0  0  0  0  0
    3.2492   55.3732   22.8773 C   0  0  0  0  0  0  0  0  0  0  0  0
    4.0693   56.9203   21.0791 C   0  0  0  0  0  0  0  0  0  0  0  0
    6.9528   62.3779   21.3531 C   0  0  0  0  0  0  0  0  0  0  0  0
    6.1200   61.2264   20.7933 C   0  0  0  0  0  0  0  0  0  0  0  0
    4.9140   58.1849   20.8999 C   0  0  0  0  0  0  0  0  0  0  0  0
    4.2323   59.5235   21.2767 C   0  0  0  0  0  0  0  0  0  0  0  0
  1 22  2  0
  2 11  4  0
  2 19  4  0
  3 12  1  0
  3 24  1  0
  3 26  1  0
  4  9  1  0
  4 15  4  0
  4 19  4  0
  5 21  1  0
  5 22  1  0
  6  9  1  0
  7 24  1  0
  8 12  1  0
  8 25  1  0
  9 17  1  0
 10 17  1  0
 10 18  1  0
 11 20  1  0
 11 21  4  0
 12 16  1  0
 13 17  1  0
 14 26  1  0
 15 21  4  0
 22 25  1  0
 23 24  1  0
 25 26  1  0
M  END
$$$$

     RDKit          3D

 26 27  0  0  0  0  0  0  0  0999 V2000
    5.1457   56.9420   22.3376 C   0  0  0  0  0  0  0  0  0  0  0  0
    5.0372   59.4961   22.6256 C   0  0  0  0  0  0  0  0  0  0  0  0
    2.2865   55.5268   24.2450 C   0  0  0  0  0  0  0  0  0  0  0  0
    3.6056   60.8312   20.4800 O   0  0  0  0  0  0  0  0  0  0  0  0
    3.2207   55.5799   23.2009 C   0  0  0  0  0  0  0  0  0  0  0  0
    6.4968   59.3901   20.7315 C   0  0  0  0  0  0  0  0  0  0  0  0
    6.3088   62.9693   20.4408 O   0  0  0  0  0  0  0  0  0  0  0  0
    2.2459   53.5551   22.2811 C   0  0  0  0  0  0  0  0  0  0  0  0
    7.0213   58.4641   21.7426 N   0  0  0  0  0  0  0  0  0  0  0  0
    1.6799   50.7075   20.0320 C   0  0  0  0  0  0  0  0  0  0  0  0
    1.3420   54.5071   24.3170 C   0  0  0  0  0  0  0  0  0  0  0  0
    4.7740   60.1868   23.9756 C   0  0  0  0  0  0  0  0  0  0  0  0
    2.3252   56.5115   25.2014 O   0  0  0  0  0  0  0  0  0  0  0  0
    1.3929   51.5723   21.2559 C   0  0  0  0  0  0  0  0  0  0  0  0
    5.7347   60.3965   21.5847 C   0  0  0  0  0  0  0  0  0  0  0  0
    5.9196   58.2358   22.7092 C   0  0  0  0  0  0  0  0  0  0  0  0
    5.4670   56.2662   21.3619 O   0  0  0  0  0  0  0  0  0  0  0  0
    5.9977   60.6907   24.7302 C   0  0  0  0  0  0  0  0  0  0  0  0
    3.1916   54.5882   22.2218 C   0  0  0  0  0  0  0  0  0  0  0  0
    7.6458   59.9872   19.9322 C   0  0  0  0  0  0  0  0  0  0  0  0
    0.7307   49.5264   19.9390 C   0  0  0  0  0  0  0  0  0  0  0  0
    2.3287   52.6495   21.2583 O   0  0  0  0  0  0  0  0  0  0  0  0
    4.1289   56.6575   23.2263 N   0  0  0  0  0  0  0  0  0  0  0  0
    5.2174   62.4986   20.1680 C   0  0  0  0  0  0  0  0  0  0  0  0
    1.3239   53.5185   23.3301 C   0  0  0  0  0  0  0  0  0  0  0  0
    4.7491   61.1827   20.7459 C   0  0  0  0  0  0  0  0  0  0  0  0
  1 16  1  0
  1 17  2  0
  1 23  1  0
  2 12  1  0
  2 15  1  0
  2 16  1  0
  3  5  4  0
  3 11  4  0
  3 13  1  0
  4 26  2  0
  5 19  4  0
  5 23  1  0
  6  9  1  0
  6 15  1  0
  6 20  1  0
  7 24  2  0
  8 19  4  0
  8 22  1  0
  8 25  4  0
  9 16  1  0
 10 14  1  0
 10 21  1  0
 11 25  4  0
 12 18  1  0
 14 22  1  0
 15 26  1  0
 24 26  1  0
M  END
$$$$

     RDKit          3D

 29 31  0  0  0  0  0  0  0  0999 V2000
    2.0998   56.3035   22.8128 C   0  0  0  0  0  0  0  0  0  0  0  0
    5.2694   59.1826   22.3229 C   0  0  0  0  0  0  0  0  0  0  0  0
    3.0317   51.2924   22.9957 C   0  0  0  0  0  0  0  0  0  0  0  0
    6.2181   60.1332   21.5651 C   0  0  0  0  0  0  0  0  0  0  0  0
    5.5543   61.5095   21.3155 C   0  0  0  0  0  0  0  0  0  0  0  0
    0.5900   55.3490   24.2857 C   0  0  0  0  0  0  0  0  0  0  0  0
    6.7626   60.1658   19.0139 C   0  0  0  0  0  0  0  0  0  0  0  0
    5.3161   62.1672   22.5623 O   0  0  0  0  0  0  0  0  0  0  0  0
    6.8477   57.0890   22.6287 C   0  0  0  0  0  0  0  0  0  0  0  0
    4.4464   58.6147   21.1493 C   0  0  0  0  0  0  0  0  0  0  0  0
    2.4465   51.5471   21.6720 N   0  0  0  0  0  0  0  0  0  0  0  0
    2.8567   57.3611   22.5176 N   0  0  0  0  0  0  0  0  0  0  0  0
    1.2510   54.0902   22.4088 C   0  0  0  0  0  0  0  0  0  0  0  0
    1.1526   52.6034   21.5176 S   0  0  0  0  0  4  0  0  0  0  0  0
   -0.1501   51.7844   21.9699 O   0  0  0  0  0  0  0  0  0  0  0  0
    2.0771   55.1600   21.9957 C   0  0  0  0  0  0  0  0  0  0  0  0
    5.9493   58.1467   23.2539 C   0  0  0  0  0  0  0  0  0  0  0  0
    6.4945   59.3480   20.2685 C   0  0  0  0  0  0  0  0  0  0  0  0
    4.0990   50.0152   20.5348 C   0  0  0  0  0  0  0  0  0  0  0  0
    0.8602   52.9112   19.9741 O   0  0  0  0  0  0  0  0  0  0  0  0
    7.4169   60.4262   22.2957 O   0  0  0  0  0  0  0  0  0  0  0  0
    4.1896   52.2061   23.3788 C   0  0  0  0  0  0  0  0  0  0  0  0
    5.3611   58.4925   20.0346 O   0  0  0  0  0  0  0  0  0  0  0  0
    0.4955   54.1818   23.5679 C   0  0  0  0  0  0  0  0  0  0  0  0
    3.3892   51.3652   20.5594 C   0  0  0  0  0  0  0  0  0  0  0  0
    2.8838   55.1771   20.8378 C   0  0  0  0  0  0  0  0  0  0  0  0
    1.3722   56.3860   23.9269 N   0  0  0  0  0  0  0  0  0  0  0  0
    3.6452   57.3568   21.4149 C   0  0  0  0  0  0  0  0  0  0  0  0
    3.6676   56.2832   20.5418 C   0  0  0  0  0  0  0  0  0  0  0  0
  1 12  4  0
  1 16  4  0
  1 27  4  0
  2  4  1  0
  2 10  1  0
  2 17  1  0
  3 11  1  0
  3 22  1  0
  4  5  1  0
  4 18  1  0
  4 21  1  0
  5  8  1  0
  6 24  4  0
  6 27  4  0
  7 18  1  0
  9 17  1  0
 10 23  1  0
 10 28  1  0
 11 14  1  0
 11 25  1  0
 12 28  4  0
 13 14  1  0
 13 16  4  0
 13 24  4  0
 14 15  1  0
 14 20  1  0
 16 26  4  0
 18 23  1  0
 19 25  1  0
 26 29  4  0
 28 29  4  0
M  END
$$$$

     RDKit          3D

 27 28  0  0  0  0  0  0  0  0999 V2000
    3.5193   56.6352   20.6691 C   0  0  0  0  0  0  0  0  0  0  0  0
    7.6906   59.7674   22.2125 O   0  0  0  0  0  0  0  0  0  0  0  0
    0.9017   56.4432   23.1987 C   0  0  0  0  0  0  0  0  0  0  0  0
    1.1774   53.7306   23.4091 C   0  0  0  0  0  0  0  0  0  0  0  0
    3.8471   52.6796   22.9554 N   0  0  0  0  0  0  0  0  0  0  0  0
    2.8287   56.7401   21.8589 N   0  0  0  0  0  0  0  0  0  0  0  0
   -0.0130   55.7381   23.9674 C   0  0  0  0  0  0  0  0  0  0  0  0
    3.5066   59.0944   20.8712 N   0  0  0  0  0  0  0  0  0  0  0  0
    6.4670   60.0140   24.0879 O   0  0  0  0  0  0  0  0  0  0  0  0
    6.4365   56.7449   21.3184 C   0  0  0  0  0  0  0  0  0  0  0  0
    4.3076   57.9344   20.3480 C   0  0  0  0  0  0  0  0  0  0  0  0
    5.4225   58.9087   22.2434 C   0  0  0  0  0  0  0  0  0  0  0  0
    6.1715   52.6201   22.0077 C   0  0  0  0  0  0  0  0  0  0  0  0
    1.9750   55.8244   22.5140 C   0  0  0  0  0  0  0  0  0  0  0  0
    4.3852   59.9080   21.7340 C   0  0  0  0  0  0  0  0  0  0  0  0
    0.1218   54.3644   24.0634 C   0  0  0  0  0  0  0  0  0  0  0  0
    5.6945   58.0500   21.0052 C   0  0  0  0  0  0  0  0  0  0  0  0
    4.9325   61.1072   20.9545 C   0  0  0  0  0  0  0  0  0  0  0  0
    1.2640   52.3768   23.6225 O   0  0  0  0  0  0  0  0  0  0  0  0
    6.6447   59.5899   22.8162 C   0  0  0  0  0  0  0  0  0  0  0  0
    3.5372   55.6725   19.9132 O   0  0  0  0  0  0  0  0  0  0  0  0
    2.7400   52.9232   20.7190 C   0  0  0  0  0  0  0  0  0  0  0  0
    0.6944   57.7967   23.0757 O   0  0  0  0  0  0  0  0  0  0  0  0
    2.1328   54.4258   22.6198 C   0  0  0  0  0  0  0  0  0  0  0  0
    3.2704   53.6386   21.9710 C   0  0  0  0  0  0  0  0  0  0  0  0
    6.9128   56.0301   20.0614 C   0  0  0  0  0  0  0  0  0  0  0  0
    4.9377   51.8433   22.4435 C   0  0  0  0  0  0  0  0  0  0  0  0
  1  6  1  0
  1 11  1  0
  1 21  2  0
  2 20  2  0
  3  7  4  0
  3 14  4  0
  3 23  1  0
  4 16  4  0
  4 19  1  0
  4 24  4  0
  5 25  1  0
  5 27  1  0
  6 14  1  0
  7 16  4  0
  8 11  1  0
  8 15  1  0
  9 20  1  0
 10 17  1  0
 10 26  1  0
 11 17  1  0
 12 15  1  0
 12 17  1  0
 12 20  1  0
 13 27  1  0
 14 24  4  0
 15 18  1  0
 22 25  1  0
 24 25  1  0
M  END
$$$$

     RDKit          2D

  1  0  0  0  0  0  0  0  0  0999 V2000
    0.0000    0.0000    0.0000 C   0  0  0  0  0  0  0  0  0  0  0  0
M  END
$$$$

     RDKit          3D

 29 30  0  0  0  0  0  0  0  0999 V2000
    4.3144   56.7408   21.4481 C   0  0  0  0  0  0  0  0  0  0  0  0
    5.2315   57.9850   21.4384 C   0  0  0  0  0  0  0  0  0  0  0  0
    6.1260   61.2414   21.6573 C   0  0  0  0  0  0  0  0  0  0  0  0
    0.8319   52.5387   21.7077 C   0  0  0  0  0  0  0  0  0  0  0  0
    2.2899   55.6334   24.3664 C   0  0  0  0  0  0  0  0  0  0  0  0
    0.9101   53.7019   23.9894 C   0  0  0  0  0  0  0  0  0  0  0  0
    2.2624   54.5955   22.1925 C   0  0  0  0  0  0  0  0  0  0  0  0
    6.7404   59.3017   20.2317 C   0  0  0  0  0  0  0  0  0  0  0  0
    3.4244   51.0771   23.3362 C   0  0  0  0  0  0  0  0  0  0  0  0
    1.7352   51.4316   21.4328 N   0  0  0  0  0  0  0  0  0  0  0  0
    6.1676   62.6994   21.2177 C   0  0  0  0  0  0  0  0  0  0  0  0
    4.4894   59.2991   21.1885 C   0  0  0  0  0  0  0  0  0  0  0  0
    2.7689   56.6261   25.1852 O   0  0  0  0  0  0  0  0  0  0  0  0
    4.2004   55.9893   20.4836 O   0  0  0  0  0  0  0  0  0  0  0  0
    2.8043   51.7337   20.4762 C   0  0  0  0  0  0  0  0  0  0  0  0
    1.3420   53.6275   22.6505 C   0  0  0  0  0  0  0  0  0  0  0  0
    5.5925   60.2363   20.6499 C   0  0  0  0  0  0  0  0  0  0  0  0
    3.6835   59.8232   22.3708 C   0  0  0  0  0  0  0  0  0  0  0  0
    6.1505   57.9668   20.2803 N   0  0  0  0  0  0  0  0  0  0  0  0
   -0.3574   51.9814   22.2221 O   0  0  0  0  0  0  0  0  0  0  0  0
    7.2659   59.6027   18.8352 C   0  0  0  0  0  0  0  0  0  0  0  0
    0.3863   53.1309   20.5034 O   0  0  0  0  0  0  0  0  0  0  0  0
    3.4095   50.4751   19.8569 C   0  0  0  0  0  0  0  0  0  0  0  0
    6.5717   63.5553   22.2749 O   0  0  0  0  0  0  0  0  0  0  0  0
    2.1512   50.6508   22.6062 C   0  0  0  0  0  0  0  0  0  0  0  0
    2.7453   55.5913   23.0416 C   0  0  0  0  0  0  0  0  0  0  0  0
    1.3783   54.6997   24.8461 C   0  0  0  0  0  0  0  0  0  0  0  0
    3.6706   56.5843   22.6630 N   0  0  0  0  0  0  0  0  0  0  0  0
    6.5447   60.9077   22.7692 O   0  0  0  0  0  0  0  0  0  0  0  0
  1  2  1  0
  1 14  2  0
  1 28  1  0
  2 12  1  0
  2 19  1  0
  3 11  1  0
  3 17  1  0
  3 29  2  0
  4 10  1  0
  4 16  1  0
  4 20  1  0
  4 22  1  0
  5 13  1  0
  5 26  4  0
  5 27  4  0
  6 16  4  0
  6 27  4  0
  7 16  4  0
  7 26  4  0
  8 17  1  0
  8 19  1  0
  8 21  1  0
  9 25  1  0
 10 15  1  0
 10 25  1  0
 11 24  1  0
 12 17  1  0
 12 18  1  0
 15 23  1  0
 26 28  1  0
M  END
$$$$

     RDKit          2D

  1  0  0  0  0  0  0  0  0  0999 V2000
    0.0000    0.0000    0.0000 C   0  0  0  0  0  0  0  0  0  0  0  0
M  END
$$$$

     RDKit          2D

  1  0  0  0  0  0  0  0  0  0999 V2000
    0.0000    0.0000    0.0000 C   0  0  0  0  0  0  0  0  0  0  0  0
M  END
$$$$

     RDKit          2D

  1  0  0  0  0  0  0  0  0  0999 V2000
    0.0000    0.0000    0.0000 C   0  0  0  0  0  0  0  0  0  0  0  0
M  END
$$$$

     RDKit          3D

 27 28  0  0  0  0  0  0  0  0999 V2000
    1.4990   51.1894   21.8028 N   0  0  0  0  0  0  0  0  0  0  0  0
    6.5631   58.0587   20.6375 N   0  0  0  0  0  0  0  0  0  0  0  0
    3.0980   54.8196   24.5875 C   0  0  0  0  0  0  0  0  0  0  0  0
    4.1456   56.3720   23.0482 N   0  0  0  0  0  0  0  0  0  0  0  0
    1.0814   53.4790   23.8670 C   0  0  0  0  0  0  0  0  0  0  0  0
    6.9112   59.4957   20.5647 C   0  0  0  0  0  0  0  0  0  0  0  0
    3.8407   59.4329   20.8828 C   0  0  0  0  0  0  0  0  0  0  0  0
    4.8116   62.1175   22.1330 O   0  0  0  0  0  0  0  0  0  0  0  0
    3.4579   55.0767   23.1162 C   0  0  0  0  0  0  0  0  0  0  0  0
   -0.7253   52.8300   21.8475 O   0  0  0  0  0  0  0  0  0  0  0  0
    3.4428   49.6338   21.6934 C   0  0  0  0  0  0  0  0  0  0  0  0
    6.7616   62.5643   20.8328 C   0  0  0  0  0  0  0  0  0  0  0  0
    5.6972   57.8834   21.8283 C   0  0  0  0  0  0  0  0  0  0  0  0
    2.2116   52.4890   21.7213 C   0  0  0  0  0  0  0  0  0  0  0  0
    2.4471   59.1514   21.4290 C   0  0  0  0  0  0  0  0  0  0  0  0
    6.1726   60.1680   21.7286 C   0  0  0  0  0  0  0  0  0  0  0  0
    6.2270   63.8761   20.7183 O   0  0  0  0  0  0  0  0  0  0  0  0
    2.1877   55.0340   22.2547 C   0  0  0  0  0  0  0  0  0  0  0  0
    8.4297   59.6180   20.6497 C   0  0  0  0  0  0  0  0  0  0  0  0
    2.4997   52.7117   20.2289 C   0  0  0  0  0  0  0  0  0  0  0  0
    0.1866   53.9445   21.6250 O   0  0  0  0  0  0  0  0  0  0  0  0
    2.3160   53.5216   24.7643 C   0  0  0  0  0  0  0  0  0  0  0  0
    2.2534   50.1423   22.4949 C   0  0  0  0  0  0  0  0  0  0  0  0
    1.4082   53.6952   22.3671 C   0  0  0  0  0  0  0  0  0  0  0  0
    5.8072   61.6394   21.5764 C   0  0  0  0  0  0  0  0  0  0  0  0
    4.9596   59.2325   21.9423 C   0  0  0  0  0  0  0  0  0  0  0  0
    4.8447   56.5975   21.7795 C   0  0  0  0  0  0  0  0  0  0  0  0
  1 14  1  0
  1 23  1  0
  2  6  1  0
  2 13  1  0
  3  9  1  0
  3 22  1  0
  4  9  1  0
  4 27  1  0
  5 22  1  0
  5 24  1  0
  6 16  1  0
  6 19  1  0
  7 15  1  0
  7 26  1  0
  8 25  2  0
  9 18  1  0
 10 21  1  0
 11 23  1  0
 12 17  1  0
 12 25  1  0
 13 26  1  0
 13 27  1  0
 14 20  1  0
 14 24  1  0
 16 25  1  0
 16 26  1  0
 18 24  1  0
 21 24  1  0
M  END
$$$$

     RDKit          2D

  1  0  0  0  0  0  0  0  0  0999 V2000
    0.0000    0.0000    0.0000 C   0  0  0  0  0  0  0  0  0  0  0  0
M  END
$$$$

     RDKit          3D

 27 28  0  0  0  0  0  0  0  0999 V2000
    6.4747   61.3185   20.2578 O   0  0  0  0  0  0  0  0  0  0  0  0
    4.0369   59.1710   22.9334 C   0  0  0  0  0  0  0  0  0  0  0  0
    3.7848   54.8082   24.8389 C   0  0  0  0  0  0  0  0  0  0  0  0
    6.9625   59.3846   18.9459 C   0  0  0  0  0  0  0  0  0  0  0  0
    2.0886   55.0410   23.1397 C   0  0  0  0  0  0  0  0  0  0  0  0
    0.3093   53.0447   22.4521 S   0  0  0  0  0  0  0  0  0  0  0  0
    5.4129   58.8992   23.4526 N   0  0  0  0  0  0  0  0  0  0  0  0
    5.4847   59.2649   21.0520 C   0  0  0  0  0  0  0  0  0  0  0  0
    1.9867   60.9928   21.4288 C   0  0  0  0  0  0  0  0  0  0  0  0
    1.6718   53.7265   23.3872 C   0  0  0  0  0  0  0  0  0  0  0  0
    3.1724   60.3334   20.7405 C   0  0  0  0  0  0  0  0  0  0  0  0
    4.8248   55.3609   25.5423 O   0  0  0  0  0  0  0  0  0  0  0  0
    6.2642   58.6872   22.2497 C   0  0  0  0  0  0  0  0  0  0  0  0
    2.9982   50.9048   20.7977 C   0  0  0  0  0  0  0  0  0  0  0  0
    2.3174   52.9633   24.3677 C   0  0  0  0  0  0  0  0  0  0  0  0
    3.8108   50.8854   19.5799 N   0  0  0  0  0  0  0  0  0  0  0  0
    3.6375   56.8942   23.6728 N   0  0  0  0  0  0  0  0  0  0  0  0
    7.6536   59.2657   22.5071 C   0  0  0  0  0  0  0  0  0  0  0  0
    0.7101   50.9971   19.6778 C   0  0  0  0  0  0  0  0  0  0  0  0
    1.6553   51.6559   20.6794 C   0  0  0  0  0  0  0  0  0  0  0  0
    1.0353   51.6206   21.9734 O   0  0  0  0  0  0  0  0  0  0  0  0
    4.3262   60.0290   21.7019 C   0  0  0  0  0  0  0  0  0  0  0  0
    3.3768   53.5024   25.0977 C   0  0  0  0  0  0  0  0  0  0  0  0
    3.1525   55.5881   23.8585 C   0  0  0  0  0  0  0  0  0  0  0  0
    3.2985   57.8208   22.7058 C   0  0  0  0  0  0  0  0  0  0  0  0
    6.3172   60.1083   20.0999 C   0  0  0  0  0  0  0  0  0  0  0  0
    2.4885   57.6480   21.8020 O   0  0  0  0  0  0  0  0  0  0  0  0
  1 26  2  0
  2  7  1  0
  2 22  1  0
  2 25  1  0
  3 12  1  0
  3 23  4  0
  3 24  4  0
  4 26  1  0
  5 10  4  0
  5 24  4  0
  6 10  1  0
  6 21  1  0
  7 13  1  0
  8 13  1  0
  8 22  1  0
  8 26  1  0
  9 11  1  0
 10 15  4  0
 11 22  1  0
 13 18  1  0
 14 16  1  0
 14 20  1  0
 15 23  4  0
 17 24  1  0
 17 25  1  0
 19 20  1  0
 20 21  1  0
 25 27  2  0
M  END
$$$$

     RDKit          2D

  1  0  0  0  0  0  0  0  0  0999 V2000
    0.0000    0.0000    0.0000 C   0  0  0  0  0  0  0  0  0  0  0  0
M  END
$$$$

     RDKit          3D

 26 27  0  0  0  0  0  0  0  0999 V2000
    6.8610   61.6875   21.7368 C   0  0  0  0  0  0  0  0  0  0  0  0
    4.6021   60.2868   20.3323 C   0  0  0  0  0  0  0  0  0  0  0  0
    7.5158   59.5355   22.5385 O   0  0  0  0  0  0  0  0  0  0  0  0
    2.9042   54.8907   21.2422 C   0  0  0  0  0  0  0  0  0  0  0  0
    4.4146   59.0504   22.3804 C   0  0  0  0  0  0  0  0  0  0  0  0
    4.5311   50.8160   22.4364 C   0  0  0  0  0  0  0  0  0  0  0  0
    2.5246   56.2915   23.1394 C   0  0  0  0  0  0  0  0  0  0  0  0
    4.8815   60.2160   24.6252 C   0  0  0  0  0  0  0  0  0  0  0  0
    3.3577   57.2673   21.0341 N   0  0  0  0  0  0  0  0  0  0  0  0
    2.4921   53.7553   21.9566 C   0  0  0  0  0  0  0  0  0  0  0  0
    6.6723   60.1852   21.9092 C   0  0  0  0  0  0  0  0  0  0  0  0
    0.7118   51.2558   21.9959 N   0  0  0  0  0  0  0  0  0  0  0  0
    2.5417   52.6023   21.2324 O   0  0  0  0  0  0  0  0  0  0  0  0
    5.1494   60.2185   18.9105 C   0  0  0  0  0  0  0  0  0  0  0  0
    3.2492   59.6963   20.3762 N   0  0  0  0  0  0  0  0  0  0  0  0
    2.1445   51.3215   21.7239 C   0  0  0  0  0  0  0  0  0  0  0  0
    3.5246   57.1198   19.6462 O   0  0  0  0  0  0  0  0  0  0  0  0
    2.6840   49.2955   23.1767 C   0  0  0  0  0  0  0  0  0  0  0  0
    2.9260   56.1807   21.8032 C   0  0  0  0  0  0  0  0  0  0  0  0
    2.0945   53.9076   23.2776 C   0  0  0  0  0  0  0  0  0  0  0  0
    7.9815   62.1577   22.4730 O   0  0  0  0  0  0  0  0  0  0  0  0
    3.9762   60.1251   23.4035 C   0  0  0  0  0  0  0  0  0  0  0  0
    2.1123   55.1716   23.8682 C   0  0  0  0  0  0  0  0  0  0  0  0
    3.2298   58.6711   21.4586 C   0  0  0  0  0  0  0  0  0  0  0  0
    5.4438   59.5019   21.3357 C   0  0  0  0  0  0  0  0  0  0  0  0
    3.0532   50.7449   22.8399 C   0  0  0  0  0  0  0  0  0  0  0  0
  1 11  1  0
  1 21  1  0
  2 14  1  0
  2 15  1  0
  2 25  1  0
  3 11  2  0
  4 10  4  0
  4 19  4  0
  5 22  1  0
  5 24  1  0
  5 25  1  0
  6 26  1  0
  7 19  4  0
  7 23  4  0
  8 22  1  0
  9 17  1  0
  9 19  1  0
  9 24  1  0
 10 13  1  0
 10 20  4  0
 11 25  1  0
 12 16  1  0
 13 16  1  0
 15 24  1  0
 16 26  1  0
 18 26  1  0
 20 23  4  0
M  END
$$$$

     RDKit          2D

  1  0  0  0  0  0  0  0  0  0999 V2000
    0.0000    0.0000    0.0000 C   0  0  0  0  0  0  0  0  0  0  0  0
M  END
$$$$
