MODEL 1
REMARK VINA RESULT:      -6.7      0.000      0.000
REMARK  Name = 
REMARK  15 active torsions:
REMARK  status: ('A' for Active; 'I' for Inactive)
REMARK    1  A    between atoms: C_1  and  C_6
REMARK    2  A    between atoms: C_1  and  O_18
REMARK    3  A    between atoms: C_1  and  C_26
REMARK    4  A    between atoms: C_2  and  O_20
REMARK    5  A    between atoms: C_3  and  C_14
REMARK    6  A    between atoms: C_3  and  C_15
REMARK    7  A    between atoms: O_4  and  C_12
REMARK    8  A    between atoms: C_5  and  C_9
REMARK    9  A    between atoms: C_7  and  C_12
REMARK   10  A    between atoms: C_8  and  C_15
REMARK   11  A    between atoms: C_10  and  C_24
REMARK   12  A    between atoms: C_12  and  C_23
REMARK   13  A    between atoms: C_15  and  O_17
REMARK   14  A    between atoms: O_16  and  O_17
REMARK   15  A    between atoms: O_16  and  C_25
REMARK                            x       y       z     vdW  Elec       q    Type
REMARK                         _______ _______ _______ _____ _____    ______ ____
ROOT
ATOM      1  C   UNL     1       4.111  59.144  21.787  0.00  0.00    +0.000 C 
ENDROOT
BRANCH   1   3
ATOM      2  C   UNL     1       4.061  56.449  24.428  0.00  0.00    +0.000 C 
ATOM      3  C   UNL     1       4.622  58.159  22.871  0.00  0.00    +0.000 C 
ATOM      4  C   UNL     1       2.827  56.089  25.242  0.00  0.00    +0.000 C 
ATOM      5  C   UNL     1       4.959  58.720  24.263  0.00  0.00    +0.000 C 
ATOM      6  N   UNL     1       3.621  57.123  23.198  0.00  0.00    +0.000 N 
ATOM      7  C   UNL     1       5.110  57.399  25.059  0.00  0.00    +0.000 C 
ATOM      8  C   UNL     1       3.920  59.686  24.833  0.00  0.00    +0.000 C 
ATOM      9  H   UNL     1       2.709  57.556  23.345  0.00  0.00    +0.000 HD
ATOM     10  H   UNL     1       3.537  56.454  22.433  0.00  0.00    +0.000 HD
BRANCH   7  11
ATOM     11  C   UNL     1       5.198  57.510  26.586  0.00  0.00    +0.000 C 
BRANCH  11  12
ATOM     12  O   UNL     1       5.177  56.254  27.242  0.00  0.00    +0.000 OA
ATOM     13  H   UNL     1       5.041  55.550  26.589  0.00  0.00    +0.000 HD
ENDBRANCH  11  12
BRANCH  11  14
ATOM     14  C   UNL     1       6.429  58.313  26.991  0.00  0.00    +0.000 C 
ATOM     15  O   UNL     1       7.574  57.885  26.858  0.00  0.00    +0.000 OA
ENDBRANCH  11  14
ENDBRANCH   7  11
ENDBRANCH   1   3
BRANCH   1  21
ATOM     16  C   UNL     1       4.992  61.560  21.664  0.00  0.00    +0.000 A 
ATOM     17  C   UNL     1       7.049  62.065  20.481  0.00  0.00    +0.000 A 
ATOM     18  C   UNL     1       6.230  59.800  20.594  0.00  0.00    +0.000 A 
ATOM     19  C   UNL     1       5.947  62.482  21.228  0.00  0.00    +0.000 A 
ATOM     20  C   UNL     1       7.184  60.721  20.152  0.00  0.00    +0.000 A 
ATOM     21  C   UNL     1       5.118  60.196  21.368  0.00  0.00    +0.000 A 
BRANCH  16  22
ATOM     22  O   UNL     1       3.960  62.107  22.372  0.00  0.00    +0.000 OA
ATOM     23  H   UNL     1       3.941  63.029  22.536  0.00  0.00    +0.000 HD
ENDBRANCH  16  22
BRANCH  20  24
ATOM     24  O   UNL     1       8.226  60.203  19.419  0.00  0.00    +0.000 OA
BRANCH  24  25
ATOM     25  O   UNL     1       7.712  59.141  18.558  0.00  0.00    +0.000 OA
BRANCH  25  27
ATOM     26  C   UNL     1       8.158  58.336  16.296  0.00  0.00    +0.000 C 
ATOM     27  C   UNL     1       7.928  59.547  17.197  0.00  0.00    +0.000 C 
BRANCH  27  28
ATOM     28  C   UNL     1       9.036  60.605  17.121  0.00  0.00    +0.000 C 
ATOM     29  C   UNL     1       8.713  61.753  16.177  0.00  0.00    +0.000 C 
ENDBRANCH  27  28
ENDBRANCH  25  27
ENDBRANCH  24  25
ENDBRANCH  20  24
ENDBRANCH   1  21
BRANCH   1  30
ATOM     30  O   UNL     1       3.768  58.381  20.613  0.00  0.00    +0.000 OA
ATOM     31  H   UNL     1       4.509  58.401  19.987  0.00  0.00    +0.000 HD
ENDBRANCH   1  30
TORSDOF 11
ENDMDL

MODEL 2
REMARK VINA RESULT:      -8.1      0.000      0.000
REMARK  Name = 
REMARK  13 active torsions:
REMARK  status: ('A' for Active; 'I' for Inactive)
REMARK    1  A    between atoms: O_2  and  C_11
REMARK    2  A    between atoms: C_3  and  O_13
REMARK    3  A    between atoms: C_4  and  C_24
REMARK    4  A    between atoms: C_4  and  C_26
REMARK    5  A    between atoms: C_6  and  C_7
REMARK    6  A    between atoms: C_8  and  N_17
REMARK    7  A    between atoms: C_9  and  C_15
REMARK    8  A    between atoms: C_9  and  C_22
REMARK    9  A    between atoms: C_10  and  C_15
REMARK   10  A    between atoms: N_12  and  C_25
REMARK   11  A    between atoms: C_14  and  O_23
REMARK   12  A    between atoms: C_15  and  O_23
REMARK   13  A    between atoms: C_16  and  C_27
REMARK                            x       y       z     vdW  Elec       q    Type
REMARK                         _______ _______ _______ _____ _____    ______ ____
ROOT
ATOM      1  C   UNL     1       4.626  56.839  21.654  0.00  0.00    +0.000 C 
ATOM      2  N   UNL     1       4.037  56.334  20.515  0.00  0.00    +0.000 N 
ATOM      3  O   UNL     1       4.733  56.324  22.752  0.00  0.00    +0.000 OA
ATOM      4  H   UNL     1       4.111  56.894  19.709  0.00  0.00    +0.000 HD
ENDROOT
BRANCH   1   6
ATOM      5  N   UNL     1       6.073  58.396  20.419  0.00  0.00    +0.000 NA
ATOM      6  C   UNL     1       5.210  58.219  21.400  0.00  0.00    +0.000 C 
ATOM      7  C   UNL     1       6.819  61.935  20.586  0.00  0.00    +0.000 C 
ATOM      8  C   UNL     1       5.941  61.720  21.592  0.00  0.00    +0.000 C 
ATOM      9  C   UNL     1       7.963  60.495  18.719  0.00  0.00    +0.000 C 
ATOM     10  C   UNL     1       6.340  59.720  20.509  0.00  0.00    +0.000 C 
ATOM     11  C   UNL     1       5.606  60.329  21.579  0.00  0.00    +0.000 C 
ATOM     12  C   UNL     1       4.853  59.424  22.205  0.00  0.00    +0.000 C 
ATOM     13  C   UNL     1       7.071  60.653  19.893  0.00  0.00    +0.000 C 
BRANCH   7  14
ATOM     14  N   UNL     1       7.424  63.110  20.228  0.00  0.00    +0.000 N 
ATOM     15  H   UNL     1       6.895  63.939  20.172  0.00  0.00    +0.000 HD
ATOM     16  H   UNL     1       8.389  63.127  20.029  0.00  0.00    +0.000 HD
ENDBRANCH   7  14
BRANCH   8  17
ATOM     17  O   UNL     1       5.477  62.621  22.498  0.00  0.00    +0.000 OA
ATOM     18  H   UNL     1       5.668  63.532  22.394  0.00  0.00    +0.000 HD
ENDBRANCH   8  17
BRANCH  12  19
ATOM     19  C   UNL     1       3.883  59.524  23.319  0.00  0.00    +0.000 C 
ATOM     20  C   UNL     1       4.568  59.500  24.677  0.00  0.00    +0.000 C 
ENDBRANCH  12  19
ENDBRANCH   1   6
BRANCH   2  26
ATOM     21  C   UNL     1       2.444  55.005  19.292  0.00  0.00    +0.000 A 
ATOM     22  C   UNL     1       1.793  52.799  20.012  0.00  0.00    +0.000 A 
ATOM     23  C   UNL     1       2.701  52.878  21.068  0.00  0.00    +0.000 A 
ATOM     24  C   UNL     1       1.661  53.868  19.123  0.00  0.00    +0.000 A 
ATOM     25  C   UNL     1       3.477  54.036  21.231  0.00  0.00    +0.000 A 
ATOM     26  C   UNL     1       3.344  55.119  20.359  0.00  0.00    +0.000 A 
BRANCH  21  27
ATOM     27  O   UNL     1       2.319  55.989  18.349  0.00  0.00    +0.000 OA
ATOM     28  H   UNL     1       1.739  56.710  18.499  0.00  0.00    +0.000 HD
ENDBRANCH  21  27
BRANCH  23  29
ATOM     29  O   UNL     1       2.940  51.905  21.998  0.00  0.00    +0.000 OA
BRANCH  29  31
ATOM     30  C   UNL     1       3.167  49.705  22.842  0.00  0.00    +0.000 C 
ATOM     31  C   UNL     1       3.108  50.547  21.567  0.00  0.00    +0.000 C 
BRANCH  31  32
ATOM     32  C   UNL     1       4.405  50.435  20.752  0.00  0.00    +0.000 C 
ATOM     33  C   UNL     1       4.367  49.340  19.698  0.00  0.00    +0.000 C 
ENDBRANCH  31  32
ENDBRANCH  29  31
ENDBRANCH  23  29
ENDBRANCH   2  26
TORSDOF 9
ENDMDL

MODEL 3
ROOT
ATOM      1  C   UNL     1       0.000   0.000   0.000  0.00  0.00    +0.000 C
ENDROOT
TORSDOF 0
ENDMDL

MODEL 4
REMARK VINA RESULT:      -7.8      0.000      0.000
REMARK  Name = 
REMARK  13 active torsions:
REMARK  status: ('A' for Active; 'I' for Inactive)
REMARK    1  A    between atoms: C_1  and  C_11
REMARK    2  A    between atoms: C_2  and  C_14
REMARK    3  A    between atoms: C_2  and  O_19
REMARK    4  A    between atoms: C_2  and  N_25
REMARK    5  A    between atoms: C_8  and  O_9
REMARK    6  A    between atoms: C_11  and  C_29
REMARK    7  A    between atoms: O_12  and  C_22
REMARK    8  A    between atoms: C_13  and  C_23
REMARK    9  A    between atoms: C_14  and  C_26
REMARK   10  A    between atoms: O_17  and  N_25
REMARK   11  A    between atoms: N_18  and  C_23
REMARK   12  A    between atoms: C_20  and  C_29
REMARK   13  A    between atoms: C_21  and  N_25
REMARK                            x       y       z     vdW  Elec       q    Type
REMARK                         _______ _______ _______ _____ _____    ______ ____
ROOT
ATOM      1  O   UNL     1       3.681  59.837  22.778  0.00  0.00    +0.000 OA
ATOM      2  C   UNL     1       4.724  59.225  22.571  0.00  0.00    +0.000 C 
ENDROOT
BRANCH   2  10
ATOM      3  C   UNL     1       7.369  62.091  19.417  0.00  0.00    +0.000 C 
ATOM      4  N   UNL     1       6.163  58.830  20.621  0.00  0.00    +0.000 NA
ATOM      5  C   UNL     1       6.681  61.007  20.151  0.00  0.00    +0.000 C 
ATOM      6  C   UNL     1       8.211  61.630  18.246  0.00  0.00    +0.000 C 
ATOM      7  C   UNL     1       7.638  59.290  18.739  0.00  0.00    +0.000 C 
ATOM      8  C   UNL     1       5.867  61.107  21.204  0.00  0.00    +0.000 C 
ATOM      9  C   UNL     1       8.309  60.316  17.964  0.00  0.00    +0.000 C 
ATOM     10  C   UNL     1       5.598  59.678  21.443  0.00  0.00    +0.000 C 
ATOM     11  C   UNL     1       6.868  59.636  19.772  0.00  0.00    +0.000 C 
ATOM     12  O   UNL     1       7.267  63.268  19.750  0.00  0.00    +0.000 OA
BRANCH   6  13
ATOM     13  O   UNL     1       8.862  62.597  17.501  0.00  0.00    +0.000 OA
ATOM     14  H   UNL     1       9.667  62.391  17.069  0.00  0.00    +0.000 HD
ENDBRANCH   6  13
BRANCH   8  15
ATOM     15  C   UNL     1       5.362  62.266  21.965  0.00  0.00    +0.000 C 
BRANCH  15  16
ATOM     16  N   UNL     1       3.996  62.621  21.549  0.00  0.00    +0.000 N 
ATOM     17  H   UNL     1       4.038  63.326  20.813  0.00  0.00    +0.000 HD
ATOM     18  H   UNL     1       3.484  62.994  22.348  0.00  0.00    +0.000 HD
ATOM     19  H   UNL     1       3.521  61.790  21.198  0.00  0.00    +0.000 HD
ENDBRANCH  15  16
ENDBRANCH   8  15
ENDBRANCH   2  10
BRANCH   2  20
ATOM     20  C   UNL     1       5.235  58.069  23.392  0.00  0.00    +0.000 C 
BRANCH  20  21
ATOM     21  C   UNL     1       4.317  56.877  23.297  0.00  0.00    +0.000 A 
ATOM     22  C   UNL     1       2.528  55.527  24.208  0.00  0.00    +0.000 A 
ATOM     23  C   UNL     1       2.542  54.729  23.059  0.00  0.00    +0.000 A 
ATOM     24  C   UNL     1       3.434  54.972  22.002  0.00  0.00    +0.000 A 
ATOM     25  C   UNL     1       3.413  56.589  24.315  0.00  0.00    +0.000 A 
ATOM     26  C   UNL     1       4.309  56.068  22.147  0.00  0.00    +0.000 A 
BRANCH  25  27
ATOM     27  O   UNL     1       3.397  57.375  25.429  0.00  0.00    +0.000 OA
ATOM     28  H   UNL     1       3.470  58.306  25.346  0.00  0.00    +0.000 HD
ENDBRANCH  25  27
BRANCH  24  29
ATOM     29  N   UNL     1       3.448  54.214  20.819  0.00  0.00    +0.000 N 
BRANCH  29  30
ATOM     30  O   UNL     1       4.420  53.219  20.646  0.00  0.00    +0.000 OA
ATOM     31  H   UNL     1       4.610  52.801  21.501  0.00  0.00    +0.000 HD
ENDBRANCH  29  30
BRANCH  29  32
ATOM     32  C   UNL     1       2.250  53.946  20.010  0.00  0.00    +0.000 C 
BRANCH  32  33
ATOM     33  C   UNL     1       2.128  54.865  18.793  0.00  0.00    +0.000 C 
ATOM     34  C   UNL     1       3.186  55.962  18.800  0.00  0.00    +0.000 C 
ENDBRANCH  32  33
BRANCH  32  35
ATOM     35  O   UNL     1       2.223  52.577  19.644  0.00  0.00    +0.000 OA
ATOM     36  H   UNL     1       1.896  52.491  18.735  0.00  0.00    +0.000 HD
ENDBRANCH  32  35
ENDBRANCH  29  32
ENDBRANCH  24  29
ENDBRANCH  20  21
ENDBRANCH   2  20
TORSDOF 12
ENDMDL

MODEL 5
REMARK VINA RESULT:      -7.4      0.000      0.000
REMARK  Name = 
REMARK  13 active torsions:
REMARK  status: ('A' for Active; 'I' for Inactive)
REMARK    1  A    between atoms: C_1  and  C_2
REMARK    2  A    between atoms: C_2  and  C_15
REMARK    3  A    between atoms: C_2  and  O_18
REMARK    4  A    between atoms: C_6  and  C_16
REMARK    5  A    between atoms: C_7  and  O_8
REMARK    6  A    between atoms: O_8  and  O_11
REMARK    7  A    between atoms: C_9  and  C_17
REMARK    8  A    between atoms: C_9  and  C_21
REMARK    9  A    between atoms: O_11  and  C_25
REMARK   10  A    between atoms: O_12  and  C_24
REMARK   11  A    between atoms: C_14  and  C_25
REMARK   12  A    between atoms: C_20  and  C_23
REMARK   13  A    between atoms: C_20  and  C_25
REMARK                            x       y       z     vdW  Elec       q    Type
REMARK                         _______ _______ _______ _____ _____    ______ ____
ROOT
ATOM      1  C   UNL     1       3.990  59.842  21.823  0.00  0.00    +0.000 C 
ENDROOT
BRANCH   1   7
ATOM      2  F   UNL     1       5.971  58.067  27.346  0.00  0.00    +0.000 F 
ATOM      3  C   UNL     1       3.561  57.795  24.892  0.00  0.00    +0.000 C 
ATOM      4  N   UNL     1       5.334  58.732  23.652  0.00  0.00    +0.000 N 
ATOM      5  C   UNL     1       4.865  57.436  24.169  0.00  0.00    +0.000 C 
ATOM      6  N   UNL     1       4.010  58.282  26.212  0.00  0.00    +0.000 N 
ATOM      7  C   UNL     1       4.148  59.584  23.353  0.00  0.00    +0.000 C 
ATOM      8  C   UNL     1       4.706  56.413  23.047  0.00  0.00    +0.000 C 
ATOM      9  C   UNL     1       2.936  58.863  23.983  0.00  0.00    +0.000 C 
ATOM     10  C   UNL     1       5.097  57.378  26.576  0.00  0.00    +0.000 C 
ATOM     11  C   UNL     1       5.774  56.932  25.289  0.00  0.00    +0.000 C 
ATOM     12  H   UNL     1       5.875  58.587  22.800  0.00  0.00    +0.000 HD
ATOM     13  H   UNL     1       5.925  59.190  24.346  0.00  0.00    +0.000 HD
ATOM     14  H   UNL     1       3.253  58.231  26.894  0.00  0.00    +0.000 HD
ATOM     15  H   UNL     1       4.305  59.258  26.189  0.00  0.00    +0.000 HD
BRANCH   9  16
ATOM     16  C   UNL     1       1.941  59.809  24.669  0.00  0.00    +0.000 C 
ATOM     17  C   UNL     1       0.668  59.104  25.114  0.00  0.00    +0.000 C 
ENDBRANCH   9  16
ENDBRANCH   1   7
BRANCH   1  18
ATOM     18  C   UNL     1       5.087  60.704  21.235  0.00  0.00    +0.000 A 
ATOM     19  C   UNL     1       7.191  60.886  20.015  0.00  0.00    +0.000 A 
ATOM     20  C   UNL     1       6.098  62.881  20.828  0.00  0.00    +0.000 A 
ATOM     21  C   UNL     1       6.168  60.108  20.561  0.00  0.00    +0.000 A 
ATOM     22  C   UNL     1       7.160  62.273  20.157  0.00  0.00    +0.000 A 
ATOM     23  C   UNL     1       5.073  62.098  21.359  0.00  0.00    +0.000 A 
BRANCH  23  24
ATOM     24  O   UNL     1       4.042  62.693  22.028  0.00  0.00    +0.000 OA
ATOM     25  H   UNL     1       4.185  63.065  22.876  0.00  0.00    +0.000 HD
ENDBRANCH  23  24
BRANCH  19  26
ATOM     26  O   UNL     1       8.207  60.205  19.389  0.00  0.00    +0.000 OA
BRANCH  26  27
ATOM     27  O   UNL     1       7.617  59.164  18.552  0.00  0.00    +0.000 OA
BRANCH  27  29
ATOM     28  C   UNL     1       8.102  58.306  16.392  0.00  0.00    +0.000 C 
ATOM     29  C   UNL     1       7.834  59.575  17.194  0.00  0.00    +0.000 C 
BRANCH  29  30
ATOM     30  C   UNL     1       9.008  60.560  17.157  0.00  0.00    +0.000 C 
ATOM     31  C   UNL     1       8.758  61.777  16.281  0.00  0.00    +0.000 C 
ENDBRANCH  29  30
ENDBRANCH  27  29
ENDBRANCH  26  27
ENDBRANCH  19  26
ENDBRANCH   1  18
BRANCH   1  32
ATOM     32  O   UNL     1       3.968  58.578  21.132  0.00  0.00    +0.000 OA
ATOM     33  H   UNL     1       3.690  58.716  20.213  0.00  0.00    +0.000 HD
ENDBRANCH   1  32
TORSDOF 9
ENDMDL

MODEL 6
REMARK VINA RESULT:      -6.4      0.000      0.000
REMARK  Name = 
REMARK  14 active torsions:
REMARK  status: ('A' for Active; 'I' for Inactive)
REMARK    1  A    between atoms: N_2  and  C_19
REMARK    2  A    between atoms: C_4  and  O_20
REMARK    3  A    between atoms: C_5  and  C_24
REMARK    4  A    between atoms: N_7  and  C_16
REMARK    5  A    between atoms: O_8  and  C_9
REMARK    6  A    between atoms: O_8  and  O_18
REMARK    7  A    between atoms: C_10  and  C_13
REMARK    8  A    between atoms: C_11  and  C_28
REMARK    9  A    between atoms: C_14  and  C_28
REMARK   10  A    between atoms: C_15  and  C_27
REMARK   11  A    between atoms: C_16  and  C_21
REMARK   12  A    between atoms: C_17  and  C_22
REMARK   13  A    between atoms: O_18  and  C_22
REMARK   14  A    between atoms: C_22  and  C_27
REMARK                            x       y       z     vdW  Elec       q    Type
REMARK                         _______ _______ _______ _____ _____    ______ ____
ROOT
ATOM      1  N   UNL     1       5.163  60.160  23.373  0.00  0.00    +0.000 N 
ATOM      2  O   UNL     1       3.265  58.999  22.691  0.00  0.00    +0.000 OA
ATOM      3  C   UNL     1       4.077  59.331  23.555  0.00  0.00    +0.000 C 
ATOM      4  H   UNL     1       5.695  60.341  24.182  0.00  0.00    +0.000 HD
ENDROOT
BRANCH   3   5
ATOM      5  C   UNL     1       3.935  58.812  25.031  0.00  0.00    +0.000 C 
ATOM      6  N   UNL     1       5.021  59.357  25.876  0.00  0.00    +0.000 N 
ATOM      7  C   UNL     1       3.022  60.594  26.191  0.00  0.00    +0.000 C 
ATOM      8  C   UNL     1       1.937  61.041  27.159  0.00  0.00    +0.000 C 
ATOM      9  C   UNL     1       4.360  60.274  26.853  0.00  0.00    +0.000 C 
ATOM     10  N   UNL     1       2.674  59.300  25.603  0.00  0.00    +0.000 N 
ATOM     11  H   UNL     1       5.713  59.868  25.328  0.00  0.00    +0.000 HD
ATOM     12  H   UNL     1       2.330  58.658  26.319  0.00  0.00    +0.000 HD
ATOM     13  H   UNL     1       1.932  59.372  24.908  0.00  0.00    +0.000 HD
BRANCH   9  15
ATOM     14  O   UNL     1       5.209  62.496  26.236  0.00  0.00    +0.000 OA
ATOM     15  C   UNL     1       5.178  61.547  27.013  0.00  0.00    +0.000 C 
BRANCH  15  16
ATOM     16  C   UNL     1       6.009  61.662  28.265  0.00  0.00    +0.000 C 
ATOM     17  O   UNL     1       7.172  61.292  28.297  0.00  0.00    +0.000 OA
ENDBRANCH  15  16
ENDBRANCH   9  15
BRANCH   6  18
ATOM     18  C   UNL     1       5.777  58.278  26.523  0.00  0.00    +0.000 C 
ATOM     19  C   UNL     1       5.990  57.079  25.606  0.00  0.00    +0.000 C 
ENDBRANCH   6  18
ENDBRANCH   3   5
BRANCH   1  24
ATOM     20  C   UNL     1       5.355  62.153  22.064  0.00  0.00    +0.000 A 
ATOM     21  C   UNL     1       6.446  62.192  19.921  0.00  0.00    +0.000 A 
ATOM     22  C   UNL     1       6.710  60.826  20.042  0.00  0.00    +0.000 A 
ATOM     23  C   UNL     1       6.312  60.124  21.184  0.00  0.00    +0.000 A 
ATOM     24  C   UNL     1       5.620  60.782  22.200  0.00  0.00    +0.000 A 
ATOM     25  C   UNL     1       5.761  62.861  20.935  0.00  0.00    +0.000 A 
BRANCH  20  26
ATOM     26  O   UNL     1       4.689  62.791  23.079  0.00  0.00    +0.000 OA
ATOM     27  H   UNL     1       4.124  63.514  22.888  0.00  0.00    +0.000 HD
ENDBRANCH  20  26
BRANCH  22  28
ATOM     28  O   UNL     1       7.400  60.104  19.094  0.00  0.00    +0.000 OA
BRANCH  28  29
ATOM     29  O   UNL     1       8.434  60.969  18.528  0.00  0.00    +0.000 OA
BRANCH  29  31
ATOM     30  C   UNL     1       8.783  61.648  16.209  0.00  0.00    +0.000 C 
ATOM     31  C   UNL     1       8.714  60.491  17.203  0.00  0.00    +0.000 C 
BRANCH  31  33
ATOM     32  C   UNL     1       8.399  58.154  16.220  0.00  0.00    +0.000 C 
ATOM     33  C   UNL     1       7.725  59.384  16.808  0.00  0.00    +0.000 C 
ENDBRANCH  31  33
ENDBRANCH  29  31
ENDBRANCH  28  29
ENDBRANCH  22  28
ENDBRANCH   1  24
TORSDOF 10
ENDMDL

MODEL 7
ROOT
ATOM      1  C   UNL     1       0.000   0.000   0.000  0.00  0.00    +0.000 C
ENDROOT
TORSDOF 0
ENDMDL

MODEL 8
ROOT
ATOM      1  C   UNL     1       0.000   0.000   0.000  0.00  0.00    +0.000 C
ENDROOT
TORSDOF 0
ENDMDL

MODEL 9
REMARK VINA RESULT:      -6.1      0.000      0.000
REMARK  Name = 
REMARK  16 active torsions:
REMARK  status: ('A' for Active; 'I' for Inactive)
REMARK    1  A    between atoms: C_1  and  C_7
REMARK    2  A    between atoms: C_2  and  C_11
REMARK    3  A    between atoms: C_2  and  C_21
REMARK    4  A    between atoms: C_3  and  N_18
REMARK    5  A    between atoms: C_5  and  C_7
REMARK    6  A    between atoms: C_7  and  O_9
REMARK    7  A    between atoms: O_8  and  C_21
REMARK    8  A    between atoms: C_10  and  N_20
REMARK    9  A    between atoms: C_10  and  N_28
REMARK   10  A    between atoms: C_12  and  C_22
REMARK   11  A    between atoms: C_12  and  N_28
REMARK   12  A    between atoms: C_13  and  C_24
REMARK   13  A    between atoms: C_14  and  C_27
REMARK   14  A    between atoms: O_15  and  C_24
REMARK   15  A    between atoms: C_19  and  C_23
REMARK   16  A    between atoms: C_24  and  N_28
REMARK                            x       y       z     vdW  Elec       q    Type
REMARK                         _______ _______ _______ _____ _____    ______ ____
ROOT
ATOM      1  C   UNL     1       6.523  60.486  20.887  0.00  0.00    +0.000 A 
ATOM      2  C   UNL     1       5.597  60.519  21.931  0.00  0.00    +0.000 A 
ATOM      3  C   UNL     1       5.978  58.304  20.369  0.00  0.00    +0.000 A 
ATOM      4  C   UNL     1       5.019  58.218  21.370  0.00  0.00    +0.000 A 
ATOM      5  N   UNL     1       6.713  59.408  20.107  0.00  0.00    +0.000 NA
ATOM      6  C   UNL     1       4.844  59.357  22.164  0.00  0.00    +0.000 A 
ENDROOT
BRANCH   1   7
ATOM      7  N   UNL     1       7.349  61.569  20.592  0.00  0.00    +0.000 N 
ATOM      8  H   UNL     1       7.320  62.377  21.153  0.00  0.00    +0.000 HD
ATOM      9  H   UNL     1       7.961  61.526  19.821  0.00  0.00    +0.000 HD
ENDBRANCH   1   7
BRANCH   2  10
ATOM     10  C   UNL     1       5.490  61.715  22.852  0.00  0.00    +0.000 C 
BRANCH  10  11
ATOM     11  C   UNL     1       4.263  61.605  23.803  0.00  0.00    +0.000 C 
ATOM     12  N   UNL     1       3.491  62.873  23.891  0.00  0.00    +0.000 N 
ATOM     13  C   UNL     1       3.477  61.873  26.082  0.00  0.00    +0.000 C 
ATOM     14  C   UNL     1       4.677  61.361  25.267  0.00  0.00    +0.000 C 
ATOM     15  C   UNL     1       2.456  64.174  25.710  0.00  0.00    +0.000 C 
ATOM     16  C   UNL     1       2.699  62.785  25.125  0.00  0.00    +0.000 C 
ATOM     17  H   UNL     1       2.877  62.970  23.083  0.00  0.00    +0.000 HD
ATOM     18  H   UNL     1       4.109  63.685  23.903  0.00  0.00    +0.000 HD
BRANCH  13  19
ATOM     19  C   UNL     1       2.591  60.806  26.712  0.00  0.00    +0.000 C 
ATOM     20  O   UNL     1       2.737  60.483  27.897  0.00  0.00    +0.000 OA
BRANCH  19  21
ATOM     21  C   UNL     1       1.504  60.133  25.878  0.00  0.00    +0.000 C 
BRANCH  21  22
ATOM     22  O   UNL     1       0.218  60.389  26.430  0.00  0.00    +0.000 OA
ATOM     23  H   UNL     1      -0.411  60.570  25.714  0.00  0.00    +0.000 HD
ENDBRANCH  21  22
ENDBRANCH  19  21
ENDBRANCH  13  19
BRANCH  14  25
ATOM     24  C   UNL     1       5.925  59.621  26.581  0.00  0.00    +0.000 C 
ATOM     25  C   UNL     1       5.139  59.953  25.548  0.00  0.00    +0.000 C 
ENDBRANCH  14  25
ENDBRANCH  10  11
BRANCH  10  26
ATOM     26  O   UNL     1       5.411  62.939  22.098  0.00  0.00    +0.000 OA
ATOM     27  H   UNL     1       5.955  63.618  22.525  0.00  0.00    +0.000 HD
ENDBRANCH  10  26
ENDBRANCH   2  10
BRANCH   4  28
ATOM     28  C   UNL     1       4.267  56.922  21.596  0.00  0.00    +0.000 C 
BRANCH  28  29
ATOM     29  O   UNL     1       4.628  56.312  22.831  0.00  0.00    +0.000 OA
ATOM     30  H   UNL     1       5.332  56.829  23.254  0.00  0.00    +0.000 HD
ENDBRANCH  28  29
BRANCH  28  31
ATOM     31  N   UNL     1       4.354  55.986  20.475  0.00  0.00    +0.000 N 
ATOM     32  H   UNL     1       5.318  56.034  20.147  0.00  0.00    +0.000 HD
BRANCH  31  33
ATOM     33  C   UNL     1       4.203  54.575  20.858  0.00  0.00    +0.000 C 
ATOM     34  C   UNL     1       2.763  54.068  20.792  0.00  0.00    +0.000 C 
ENDBRANCH  31  33
BRANCH  31  35
ATOM     35  C   UNL     1       3.549  56.400  19.339  0.00  0.00    +0.000 C 
BRANCH  35  36
ATOM     36  N   UNL     1       4.214  56.107  18.091  0.00  0.00    +0.000 N 
ATOM     37  H   UNL     1       5.146  55.736  18.281  0.00  0.00    +0.000 HD
ATOM     38  H   UNL     1       4.293  56.961  17.538  0.00  0.00    +0.000 HD
ATOM     39  H   UNL     1       3.673  55.414  17.572  0.00  0.00    +0.000 HD
ENDBRANCH  35  36
ENDBRANCH  31  35
ENDBRANCH  28  31
ENDBRANCH   4  28
TORSDOF 14
ENDMDL

MODEL 10
REMARK VINA RESULT:      -6.7      0.000      0.000
REMARK  Name = 
REMARK  14 active torsions:
REMARK  status: ('A' for Active; 'I' for Inactive)
REMARK    1  A    between atoms: C_1  and  C_5
REMARK    2  A    between atoms: C_1  and  C_27
REMARK    3  A    between atoms: C_2  and  C_7
REMARK    4  A    between atoms: C_2  and  C_28
REMARK    5  A    between atoms: C_4  and  C_24
REMARK    6  A    between atoms: N_6  and  C_8
REMARK    7  A    between atoms: N_6  and  C_12
REMARK    8  A    between atoms: N_6  and  O_18
REMARK    9  A    between atoms: C_8  and  C_14
REMARK   10  A    between atoms: C_11  and  C_27
REMARK   11  A    between atoms: O_13  and  O_18
REMARK   12  A    between atoms: O_13  and  C_21
REMARK   13  A    between atoms: C_15  and  C_16
REMARK   14  A    between atoms: C_15  and  C_25
REMARK                            x       y       z     vdW  Elec       q    Type
REMARK                         _______ _______ _______ _____ _____    ______ ____
ROOT
ATOM      1  C   UNL     1       3.693  60.206  23.366  0.00  0.00    +0.000 C 
ATOM      2  O   UNL     1       2.637  59.758  23.818  0.00  0.00    +0.000 OA
ENDROOT
BRANCH   1   4
ATOM      3  C   UNL     1       4.117  61.985  26.296  0.00  0.00    +0.000 C 
ATOM      4  C   UNL     1       4.750  60.852  24.283  0.00  0.00    +0.000 C 
ATOM      5  C   UNL     1       4.179  60.488  26.584  0.00  0.00    +0.000 C 
ATOM      6  N   UNL     1       4.167  62.115  24.822  0.00  0.00    +0.000 N 
ATOM      7  C   UNL     1       2.877  62.672  26.857  0.00  0.00    +0.000 C 
ATOM      8  C   UNL     1       5.157  60.015  25.502  0.00  0.00    +0.000 C 
ATOM      9  H   UNL     1       4.753  62.908  24.562  0.00  0.00    +0.000 HD
ATOM     10  H   UNL     1       3.233  62.270  24.443  0.00  0.00    +0.000 HD
BRANCH   5  11
ATOM     11  C   UNL     1       4.699  60.230  27.982  0.00  0.00    +0.000 C 
ATOM     12  O   UNL     1       4.353  59.301  28.704  0.00  0.00    +0.000 OA
BRANCH  11  14
ATOM     13  N   UNL     1       6.946  61.206  28.091  0.00  0.00    +0.000 NA
ATOM     14  C   UNL     1       5.737  61.168  28.541  0.00  0.00    +0.000 C 
ATOM     15  H   UNL     1       7.597  61.832  28.481  0.00  0.00    +0.000 HD
ENDBRANCH  11  14
ENDBRANCH   5  11
BRANCH   8  16
ATOM     16  C   UNL     1       5.190  58.492  25.334  0.00  0.00    +0.000 C 
ATOM     17  C   UNL     1       6.421  57.863  25.970  0.00  0.00    +0.000 C 
ENDBRANCH   8  16
ENDBRANCH   1   4
BRANCH   1  18
ATOM     18  C   UNL     1       3.969  60.262  21.868  0.00  0.00    +0.000 C 
BRANCH  18  21
ATOM     19  C   UNL     1       5.964  58.973  21.029  0.00  0.00    +0.000 C 
ATOM     20  C   UNL     1       7.921  60.084  19.983  0.00  0.00    +0.000 C 
ATOM     21  C   UNL     1       5.454  60.333  21.493  0.00  0.00    +0.000 C 
ATOM     22  C   UNL     1       5.758  61.416  20.452  0.00  0.00    +0.000 C 
ATOM     23  C   UNL     1       7.255  61.463  20.108  0.00  0.00    +0.000 C 
ATOM     24  C   UNL     1       6.909  58.953  19.849  0.00  0.00    +0.000 C 
ATOM     25  O   UNL     1       5.624  57.935  21.600  0.00  0.00    +0.000 OA
BRANCH  23  26
ATOM     26  O   UNL     1       7.499  62.290  18.968  0.00  0.00    +0.000 OA
BRANCH  26  27
ATOM     27  O   UNL     1       7.400  61.449  17.787  0.00  0.00    +0.000 OA
BRANCH  27  28
ATOM     28  N   UNL     1       8.463  61.776  16.852  0.00  0.00    +0.000 NA
ATOM     29  C   UNL     1       7.770  61.936  15.575  0.00  0.00    +0.000 C 
BRANCH  28  30
ATOM     30  C   UNL     1       9.341  60.602  16.863  0.00  0.00    +0.000 C 
ATOM     31  C   UNL     1       8.629  59.333  16.409  0.00  0.00    +0.000 C 
ENDBRANCH  28  30
ENDBRANCH  27  28
ENDBRANCH  26  27
ENDBRANCH  23  26
ENDBRANCH  18  21
ENDBRANCH   1  18
TORSDOF 10
ENDMDL

MODEL 11
REMARK VINA RESULT:      -6.1      0.000      0.000
REMARK  Name = 
REMARK  14 active torsions:
REMARK  status: ('A' for Active; 'I' for Inactive)
REMARK    1  A    between atoms: C_1  and  C_26
REMARK    2  A    between atoms: S_2  and  C_4
REMARK    3  A    between atoms: S_2  and  N_13
REMARK    4  A    between atoms: C_3  and  O_12
REMARK    5  A    between atoms: C_3  and  C_25
REMARK    6  A    between atoms: C_5  and  O_17
REMARK    7  A    between atoms: C_6  and  C_23
REMARK    8  A    between atoms: C_7  and  N_10
REMARK    9  A    between atoms: C_11  and  N_19
REMARK   10  A    between atoms: N_13  and  C_20
REMARK   11  A    between atoms: N_13  and  C_27
REMARK   12  A    between atoms: C_16  and  C_20
REMARK   13  A    between atoms: C_22  and  C_27
REMARK   14  A    between atoms: O_24  and  C_25
REMARK                            x       y       z     vdW  Elec       q    Type
REMARK                         _______ _______ _______ _____ _____    ______ ____
ROOT
ATOM      1  C   UNL     1       4.686  56.607  21.820  0.00  0.00    +0.000 C 
ATOM      2  O   UNL     1       5.076  56.605  22.983  0.00  0.00    +0.000 OA
ATOM      3  N   UNL     1       4.608  57.713  20.997  0.00  0.00    +0.000 N 
ATOM      4  H   UNL     1       4.234  57.554  20.101  0.00  0.00    +0.000 HD
ENDROOT
BRANCH   3   8
ATOM      5  C   UNL     1       4.811  61.188  22.385  0.00  0.00    +0.000 A 
ATOM      6  C   UNL     1       6.122  59.519  20.586  0.00  0.00    +0.000 A 
ATOM      7  C   UNL     1       5.934  61.647  21.684  0.00  0.00    +0.000 A 
ATOM      8  C   UNL     1       4.995  59.040  21.274  0.00  0.00    +0.000 A 
ATOM      9  C   UNL     1       4.341  59.885  22.173  0.00  0.00    +0.000 A 
ATOM     10  C   UNL     1       6.594  60.813  20.783  0.00  0.00    +0.000 A 
BRANCH   6  11
ATOM     11  O   UNL     1       6.753  58.674  19.707  0.00  0.00    +0.000 OA
ATOM     12  H   UNL     1       6.428  57.804  19.580  0.00  0.00    +0.000 HD
ENDBRANCH   6  11
BRANCH   5  13
ATOM     13  S   UNL     1       3.945  62.252  23.536  0.00  0.00    +0.000 S 
BRANCH  13  14
ATOM     14  N   UNL     1       3.662  61.188  24.803  0.00  0.00    +0.000 NA
BRANCH  14  16
ATOM     15  C   UNL     1       5.324  59.784  26.084  0.00  0.00    +0.000 C 
ATOM     16  C   UNL     1       4.658  61.143  25.890  0.00  0.00    +0.000 C 
ENDBRANCH  14  16
BRANCH  14  18
ATOM     17  C   UNL     1       1.620  59.700  24.812  0.00  0.00    +0.000 C 
ATOM     18  C   UNL     1       2.273  61.002  25.266  0.00  0.00    +0.000 C 
ENDBRANCH  14  18
ENDBRANCH  13  14
ENDBRANCH   5  13
ENDBRANCH   3   8
BRANCH   1  23
ATOM     19  C   UNL     1       3.352  54.374  22.032  0.00  0.00    +0.000 C 
ATOM     20  C   UNL     1       2.383  54.348  19.771  0.00  0.00    +0.000 C 
ATOM     21  C   UNL     1       3.297  55.584  19.909  0.00  0.00    +0.000 C 
ATOM     22  C   UNL     1       2.785  53.417  20.947  0.00  0.00    +0.000 C 
ATOM     23  C   UNL     1       4.174  55.340  21.146  0.00  0.00    +0.000 C 
BRANCH  20  24
ATOM     24  N   UNL     1       0.974  54.765  19.752  0.00  0.00    +0.000 N 
ATOM     25  H   UNL     1       0.655  54.929  20.707  0.00  0.00    +0.000 HD
ATOM     26  H   UNL     1       0.408  54.032  19.325  0.00  0.00    +0.000 HD
ATOM     27  H   UNL     1       0.881  55.625  19.211  0.00  0.00    +0.000 HD
ENDBRANCH  20  24
BRANCH  19  29
ATOM     28  C   UNL     1       2.254  54.935  24.303  0.00  0.00    +0.000 C 
ATOM     29  C   UNL     1       2.294  54.937  22.964  0.00  0.00    +0.000 C 
ENDBRANCH  19  29
BRANCH  22  30
ATOM     30  O   UNL     1       3.891  52.586  20.503  0.00  0.00    +0.000 OA
ATOM     31  H   UNL     1       4.430  53.080  19.866  0.00  0.00    +0.000 HD
ENDBRANCH  22  30
BRANCH  22  32
ATOM     32  C   UNL     1       1.685  52.441  21.388  0.00  0.00    +0.000 C 
BRANCH  32  33
ATOM     33  O   UNL     1       1.102  51.848  20.217  0.00  0.00    +0.000 OA
ATOM     34  H   UNL     1       0.157  52.061  20.183  0.00  0.00    +0.000 HD
ENDBRANCH  32  33
ENDBRANCH  22  32
ENDBRANCH   1  23
TORSDOF 12
ENDMDL

MODEL 12
ROOT
ATOM      1  C   UNL     1       0.000   0.000   0.000  0.00  0.00    +0.000 C
ENDROOT
TORSDOF 0
ENDMDL

MODEL 13
REMARK VINA RESULT:      -6.8      0.000      0.000
REMARK  Name = 
REMARK  14 active torsions:
REMARK  status: ('A' for Active; 'I' for Inactive)
REMARK    1  A    between atoms: C_1  and  C_4
REMARK    2  A    between atoms: C_1  and  O_11
REMARK    3  A    between atoms: C_1  and  N_13
REMARK    4  A    between atoms: C_1  and  N_24
REMARK    5  A    between atoms: N_3  and  C_26
REMARK    6  A    between atoms: C_7  and  O_19
REMARK    7  A    between atoms: C_8  and  C_28
REMARK    8  A    between atoms: C_9  and  C_23
REMARK    9  A    between atoms: N_10  and  C_17
REMARK   10  A    between atoms: C_12  and  C_27
REMARK   11  A    between atoms: N_13  and  C_17
REMARK   12  A    between atoms: N_13  and  C_25
REMARK   13  A    between atoms: C_20  and  C_25
REMARK   14  A    between atoms: C_21  and  C_22
REMARK                            x       y       z     vdW  Elec       q    Type
REMARK                         _______ _______ _______ _____ _____    ______ ____
ROOT
ATOM      1  C   UNL     1       2.125  54.658  20.764  0.00  0.00    +0.000 C 
ATOM      2  C   UNL     1       3.132  55.719  18.966  0.00  0.00    +0.000 C 
ATOM      3  C   UNL     1       3.310  55.446  21.342  0.00  0.00    +0.000 C 
ATOM      4  N   UNL     1       2.469  54.474  19.303  0.00  0.00    +0.000 N 
ATOM      5  C   UNL     1       4.074  56.006  20.141  0.00  0.00    +0.000 C 
ATOM      6  H   UNL     1       1.627  54.344  18.742  0.00  0.00    +0.000 HD
ATOM      7  H   UNL     1       3.043  53.651  19.125  0.00  0.00    +0.000 HD
ENDROOT
BRANCH   5   8
ATOM      8  N   UNL     1       4.423  57.410  20.267  0.00  0.00    +0.000 N 
ATOM      9  O   UNL     1       5.567  57.189  22.239  0.00  0.00    +0.000 OA
ATOM     10  C   UNL     1       5.269  57.868  21.265  0.00  0.00    +0.000 C 
ATOM     11  H   UNL     1       4.046  58.056  19.626  0.00  0.00    +0.000 HD
BRANCH  10  16
ATOM     12  N   UNL     1       6.639  59.336  19.935  0.00  0.00    +0.000 NA
ATOM     13  C   UNL     1       6.042  61.592  21.440  0.00  0.00    +0.000 A 
ATOM     14  C   UNL     1       7.185  60.532  19.618  0.00  0.00    +0.000 A 
ATOM     15  C   UNL     1       5.469  60.367  21.815  0.00  0.00    +0.000 A 
ATOM     16  C   UNL     1       5.793  59.268  21.015  0.00  0.00    +0.000 A 
ATOM     17  C   UNL     1       8.103  60.538  18.429  0.00  0.00    +0.000 C 
ATOM     18  C   UNL     1       6.914  61.693  20.344  0.00  0.00    +0.000 A 
BRANCH  18  19
ATOM     19  C   UNL     1       7.516  63.019  19.975  0.00  0.00    +0.000 C 
ATOM     20  F   UNL     1       6.649  64.064  20.102  0.00  0.00    +0.000 F 
ENDBRANCH  18  19
BRANCH  15  22
ATOM     21  C   UNL     1       4.908  60.319  24.236  0.00  0.00    +0.000 C 
ATOM     22  C   UNL     1       4.534  60.328  22.950  0.00  0.00    +0.000 C 
ENDBRANCH  15  22
ENDBRANCH  10  16
ENDBRANCH   5   8
BRANCH   2  23
ATOM     23  O   UNL     1       3.831  55.542  17.761  0.00  0.00    +0.000 OA
ATOM     24  H   UNL     1       3.932  56.398  17.316  0.00  0.00    +0.000 HD
ENDBRANCH   2  23
BRANCH   1  25
ATOM     25  C   UNL     1       1.775  53.254  21.420  0.00  0.00    +0.000 C 
BRANCH  25  26
ATOM     26  N   UNL     1       0.387  53.227  21.823  0.00  0.00    +0.000 N 
ATOM     27  H   UNL     1      -0.041  52.355  21.509  0.00  0.00    +0.000 HD
ATOM     28  H   UNL     1      -0.105  54.016  21.404  0.00  0.00    +0.000 HD
ATOM     29  H   UNL     1       0.326  53.288  22.839  0.00  0.00    +0.000 HD
ENDBRANCH  25  26
BRANCH  25  30
ATOM     30  O   UNL     1       2.457  53.239  22.667  0.00  0.00    +0.000 OA
ATOM     31  H   UNL     1       3.397  53.051  22.518  0.00  0.00    +0.000 HD
ENDBRANCH  25  30
BRANCH  25  32
ATOM     32  N   UNL     1       1.994  52.012  20.706  0.00  0.00    +0.000 N 
ATOM     33  H   UNL     1       2.603  52.320  19.948  0.00  0.00    +0.000 HD
BRANCH  32  35
ATOM     34  C   UNL     1       4.130  50.679  20.721  0.00  0.00    +0.000 C 
ATOM     35  C   UNL     1       2.794  50.991  21.397  0.00  0.00    +0.000 C 
ENDBRANCH  32  35
BRANCH  32  36
ATOM     36  C   UNL     1       0.804  51.464  20.072  0.00  0.00    +0.000 C 
BRANCH  36  37
ATOM     37  N   UNL     1       1.063  51.086  18.696  0.00  0.00    +0.000 N 
ATOM     38  H   UNL     1       1.936  50.562  18.645  0.00  0.00    +0.000 HD
ATOM     39  H   UNL     1       1.138  51.926  18.121  0.00  0.00    +0.000 HD
ATOM     40  H   UNL     1       0.298  50.506  18.352  0.00  0.00    +0.000 HD
ENDBRANCH  36  37
ENDBRANCH  32  36
ENDBRANCH  25  32
ENDBRANCH   1  25
TORSDOF 12
ENDMDL

MODEL 14
REMARK VINA RESULT:      -6.2      0.000      0.000
REMARK  Name = 
REMARK  14 active torsions:
REMARK  status: ('A' for Active; 'I' for Inactive)
REMARK    1  A    between atoms: N_1  and  S_9
REMARK    2  A    between atoms: N_1  and  C_16
REMARK    3  A    between atoms: N_1  and  C_20
REMARK    4  A    between atoms: C_2  and  N_25
REMARK    5  A    between atoms: C_3  and  C_17
REMARK    6  A    between atoms: C_4  and  C_15
REMARK    7  A    between atoms: C_8  and  C_27
REMARK    8  A    between atoms: S_9  and  O_22
REMARK    9  A    between atoms: C_10  and  C_18
REMARK   10  A    between atoms: C_11  and  O_22
REMARK   11  A    between atoms: C_12  and  O_23
REMARK   12  A    between atoms: C_14  and  C_20
REMARK   13  A    between atoms: C_16  and  C_19
REMARK   14  A    between atoms: C_26  and  C_27
REMARK                            x       y       z     vdW  Elec       q    Type
REMARK                         _______ _______ _______ _____ _____    ______ ____
ROOT
ATOM      1  O   UNL     1       2.216  58.525  24.054  0.00  0.00    +0.000 OA
ATOM      2  C   UNL     1       3.415  58.524  24.329  0.00  0.00    +0.000 C 
ATOM      3  N   UNL     1       4.415  57.987  23.541  0.00  0.00    +0.000 N 
ATOM      4  H   UNL     1       5.335  58.120  23.865  0.00  0.00    +0.000 HD
ENDROOT
BRANCH   2   5
ATOM      5  C   UNL     1       3.958  59.248  25.581  0.00  0.00    +0.000 C 
ATOM      6  C   UNL     1       4.167  60.770  25.512  0.00  0.00    +0.000 C 
ATOM      7  C   UNL     1       5.881  59.741  26.887  0.00  0.00    +0.000 C 
ATOM      8  C   UNL     1       4.941  60.955  26.833  0.00  0.00    +0.000 C 
ATOM      9  C   UNL     1       6.011  59.161  28.293  0.00  0.00    +0.000 C 
ATOM     10  N   UNL     1       5.308  58.770  25.952  0.00  0.00    +0.000 N 
ATOM     11  H   UNL     1       5.893  58.701  25.119  0.00  0.00    +0.000 HD
ATOM     12  H   UNL     1       5.255  57.846  26.382  0.00  0.00    +0.000 HD
BRANCH   8  13
ATOM     13  C   UNL     1       5.674  62.263  27.006  0.00  0.00    +0.000 C 
ATOM     14  O   UNL     1       5.129  63.361  26.941  0.00  0.00    +0.000 OA
ENDBRANCH   8  13
BRANCH   6  16
ATOM     15  C   UNL     1       4.155  62.190  23.398  0.00  0.00    +0.000 C 
ATOM     16  C   UNL     1       4.957  61.218  24.256  0.00  0.00    +0.000 C 
ENDBRANCH   6  16
ENDBRANCH   2   5
BRANCH   3  17
ATOM     17  C   UNL     1       4.287  57.271  22.333  0.00  0.00    +0.000 A 
ATOM     18  C   UNL     1       4.069  57.445  19.904  0.00  0.00    +0.000 A 
ATOM     19  C   UNL     1       4.264  55.881  22.234  0.00  0.00    +0.000 A 
ATOM     20  C   UNL     1       4.126  55.284  20.977  0.00  0.00    +0.000 A 
ATOM     21  C   UNL     1       4.187  58.040  21.160  0.00  0.00    +0.000 A 
ATOM     22  C   UNL     1       4.046  56.055  19.815  0.00  0.00    +0.000 A 
BRANCH  21  23
ATOM     23  O   UNL     1       4.214  59.408  21.282  0.00  0.00    +0.000 OA
ATOM     24  H   UNL     1       4.025  59.809  22.107  0.00  0.00    +0.000 HD
ENDBRANCH  21  23
BRANCH  20  25
ATOM     25  O   UNL     1       4.144  53.916  20.871  0.00  0.00    +0.000 OA
BRANCH  25  26
ATOM     26  S   UNL     1       2.679  53.190  21.203  0.00  0.00    +0.000 S 
BRANCH  26  27
ATOM     27  N   UNL     1       2.300  52.692  19.647  0.00  0.00    +0.000 NA
BRANCH  27  29
ATOM     28  C   UNL     1       1.375  50.956  18.067  0.00  0.00    +0.000 C 
ATOM     29  C   UNL     1       1.966  51.272  19.437  0.00  0.00    +0.000 C 
ENDBRANCH  27  29
BRANCH  27  30
ATOM     30  C   UNL     1       1.536  53.615  18.790  0.00  0.00    +0.000 C 
ATOM     31  C   UNL     1       0.472  54.429  19.520  0.00  0.00    +0.000 C 
ENDBRANCH  27  30
ENDBRANCH  26  27
ENDBRANCH  25  26
ENDBRANCH  20  25
ENDBRANCH   3  17
TORSDOF 10
ENDMDL

MODEL 15
REMARK VINA RESULT:      -6.2      0.000      0.000
REMARK  Name = 
REMARK  17 active torsions:
REMARK  status: ('A' for Active; 'I' for Inactive)
REMARK    1  A    between atoms: C_1  and  C_14
REMARK    2  A    between atoms: C_2  and  N_10
REMARK    3  A    between atoms: C_2  and  C_13
REMARK    4  A    between atoms: C_2  and  O_26
REMARK    5  A    between atoms: C_2  and  O_28
REMARK    6  A    between atoms: C_5  and  C_16
REMARK    7  A    between atoms: O_6  and  C_11
REMARK    8  A    between atoms: C_7  and  N_21
REMARK    9  A    between atoms: C_8  and  C_17
REMARK   10  A    between atoms: C_9  and  C_11
REMARK   11  A    between atoms: C_9  and  C_19
REMARK   12  A    between atoms: N_10  and  C_15
REMARK   13  A    between atoms: N_10  and  C_25
REMARK   14  A    between atoms: C_12  and  O_24
REMARK   15  A    between atoms: C_15  and  N_27
REMARK   16  A    between atoms: C_16  and  C_30
REMARK   17  A    between atoms: C_22  and  C_25
REMARK                            x       y       z     vdW  Elec       q    Type
REMARK                         _______ _______ _______ _____ _____    ______ ____
ROOT
ATOM      1  C   UNL     1       3.586  55.851  22.889  0.00  0.00    +0.000 A 
ATOM      2  C   UNL     1       3.501  56.212  24.233  0.00  0.00    +0.000 A 
ATOM      3  C   UNL     1       2.637  55.500  25.076  0.00  0.00    +0.000 A 
ATOM      4  C   UNL     1       2.824  54.779  22.373  0.00  0.00    +0.000 A 
ATOM      5  C   UNL     1       1.874  54.440  24.600  0.00  0.00    +0.000 A 
ATOM      6  C   UNL     1       1.973  54.083  23.254  0.00  0.00    +0.000 A 
ENDROOT
BRANCH   2   9
ATOM      7  C   UNL     1       5.577  57.292  25.144  0.00  0.00    +0.000 C 
ATOM      8  O   UNL     1       6.394  56.397  24.939  0.00  0.00    +0.000 OA
ATOM      9  N   UNL     1       4.235  57.258  24.830  0.00  0.00    +0.000 N 
ATOM     10  H   UNL     1       3.722  58.068  25.051  0.00  0.00    +0.000 HD
BRANCH   7  14
ATOM     11  N   UNL     1       6.248  58.399  27.271  0.00  0.00    +0.000 N 
ATOM     12  C   UNL     1       4.895  59.697  25.746  0.00  0.00    +0.000 C 
ATOM     13  C   UNL     1       5.045  58.871  27.965  0.00  0.00    +0.000 C 
ATOM     14  C   UNL     1       6.004  58.624  25.815  0.00  0.00    +0.000 C 
ATOM     15  C   UNL     1       5.233  58.999  29.468  0.00  0.00    +0.000 C 
ATOM     16  C   UNL     1       4.714  60.151  27.207  0.00  0.00    +0.000 C 
ATOM     17  H   UNL     1       6.396  57.406  27.455  0.00  0.00    +0.000 HD
ATOM     18  H   UNL     1       7.081  58.894  27.590  0.00  0.00    +0.000 HD
BRANCH  16  19
ATOM     19  C   UNL     1       5.534  61.369  27.637  0.00  0.00    +0.000 C 
ATOM     20  O   UNL     1       6.757  61.263  27.802  0.00  0.00    +0.000 OA
BRANCH  19  21
ATOM     21  C   UNL     1       4.863  62.726  27.851  0.00  0.00    +0.000 C 
BRANCH  21  22
ATOM     22  O   UNL     1       5.583  63.745  27.161  0.00  0.00    +0.000 OA
ATOM     23  H   UNL     1       4.964  64.430  26.860  0.00  0.00    +0.000 HD
ENDBRANCH  21  22
ENDBRANCH  19  21
ENDBRANCH  16  19
BRANCH  12  24
ATOM     24  C   UNL     1       5.131  60.793  24.700  0.00  0.00    +0.000 C 
ATOM     25  C   UNL     1       5.033  60.274  23.272  0.00  0.00    +0.000 C 
ENDBRANCH  12  24
ENDBRANCH   7  14
ENDBRANCH   2   9
BRANCH   3  26
ATOM     26  O   UNL     1       2.567  55.873  26.397  0.00  0.00    +0.000 OA
ATOM     27  H   UNL     1       2.654  56.775  26.634  0.00  0.00    +0.000 HD
ENDBRANCH   3  26
BRANCH   4  28
ATOM     28  C   UNL     1       2.920  54.375  20.900  0.00  0.00    +0.000 C 
BRANCH  28  29
ATOM     29  N   UNL     1       2.478  55.354  19.922  0.00  0.00    +0.000 N 
ATOM     30  H   UNL     1       2.131  56.126  20.491  0.00  0.00    +0.000 HD
BRANCH  29  32
ATOM     31  C   UNL     1       4.025  57.313  19.759  0.00  0.00    +0.000 C 
ATOM     32  C   UNL     1       3.559  55.987  19.160  0.00  0.00    +0.000 C 
ENDBRANCH  29  32
BRANCH  29  33
ATOM     33  C   UNL     1       1.283  55.004  19.184  0.00  0.00    +0.000 C 
BRANCH  33  34
ATOM     34  N   UNL     1       1.574  54.523  17.848  0.00  0.00    +0.000 N 
ATOM     35  H   UNL     1       2.567  54.644  17.652  0.00  0.00    +0.000 HD
ATOM     36  H   UNL     1       1.026  55.053  17.170  0.00  0.00    +0.000 HD
ATOM     37  H   UNL     1       1.331  53.534  17.784  0.00  0.00    +0.000 HD
ENDBRANCH  33  34
ENDBRANCH  29  33
ENDBRANCH  28  29
BRANCH  28  38
ATOM     38  O   UNL     1       2.164  53.203  20.690  0.00  0.00    +0.000 OA
ATOM     39  H   UNL     1       1.933  52.944  19.819  0.00  0.00    +0.000 HD
ENDBRANCH  28  38
BRANCH  28  40
ATOM     40  O   UNL     1       4.230  53.920  20.613  0.00  0.00    +0.000 OA
ATOM     41  H   UNL     1       4.421  53.538  19.780  0.00  0.00    +0.000 HD
ENDBRANCH  28  40
ENDBRANCH   4  28
TORSDOF 14
ENDMDL

MODEL 16
ROOT
ATOM      1  C   UNL     1       0.000   0.000   0.000  0.00  0.00    +0.000 C
ENDROOT
TORSDOF 0
ENDMDL

MODEL 17
ROOT
ATOM      1  C   UNL     1       0.000   0.000   0.000  0.00  0.00    +0.000 C
ENDROOT
TORSDOF 0
ENDMDL

MODEL 18
ROOT
ATOM      1  C   UNL     1       0.000   0.000   0.000  0.00  0.00    +0.000 C
ENDROOT
TORSDOF 0
ENDMDL

MODEL 19
ROOT
ATOM      1  C   UNL     1       0.000   0.000   0.000  0.00  0.00    +0.000 C
ENDROOT
TORSDOF 0
ENDMDL

MODEL 20
REMARK VINA RESULT:      -6.0      0.000      0.000
REMARK  Name = 
REMARK  15 active torsions:
REMARK  status: ('A' for Active; 'I' for Inactive)
REMARK    1  A    between atoms: C_1  and  N_4
REMARK    2  A    between atoms: C_1  and  C_17
REMARK    3  A    between atoms: N_2  and  C_8
REMARK    4  A    between atoms: N_2  and  C_13
REMARK    5  A    between atoms: N_2  and  C_16
REMARK    6  A    between atoms: C_3  and  C_26
REMARK    7  A    between atoms: C_5  and  O_12
REMARK    8  A    between atoms: O_6  and  C_26
REMARK    9  A    between atoms: C_10  and  C_26
REMARK   10  A    between atoms: C_11  and  C_24
REMARK   11  A    between atoms: C_13  and  C_22
REMARK   12  A    between atoms: O_14  and  O_25
REMARK   13  A    between atoms: C_15  and  C_24
REMARK   14  A    between atoms: C_16  and  O_25
REMARK   15  A    between atoms: C_20  and  C_27
REMARK                            x       y       z     vdW  Elec       q    Type
REMARK                         _______ _______ _______ _____ _____    ______ ____
ROOT
ATOM      1  N   UNL     1       5.081  59.259  25.373  0.00  0.00    +0.000 NA
ATOM      2  C   UNL     1       6.175  59.778  27.465  0.00  0.00    +0.000 C 
ATOM      3  C   UNL     1       3.949  60.950  26.863  0.00  0.00    +0.000 C 
ATOM      4  C   UNL     1       6.306  60.997  28.372  0.00  0.00    +0.000 C 
ATOM      5  C   UNL     1       4.522  62.374  27.155  0.00  0.00    +0.000 C 
ATOM      6  C   UNL     1       5.036  59.973  26.459  0.00  0.00    +0.000 C 
ATOM      7  C   UNL     1       6.028  62.252  27.558  0.00  0.00    +0.000 C 
ENDROOT
BRANCH   5   8
ATOM      8  N   UNL     1       3.651  62.986  28.195  0.00  0.00    +0.000 N 
ATOM      9  C   UNL     1       2.801  62.093  28.970  0.00  0.00    +0.000 C 
ATOM     10  H   UNL     1       3.006  63.467  27.569  0.00  0.00    +0.000 HD
BRANCH   8  11
ATOM     11  C   UNL     1       4.251  64.043  29.023  0.00  0.00    +0.000 C 
ATOM     12  C   UNL     1       4.086  65.481  28.542  0.00  0.00    +0.000 C 
ENDBRANCH   8  11
ENDBRANCH   5   8
BRANCH   1  13
ATOM     13  C   UNL     1       4.028  59.361  24.498  0.00  0.00    +0.000 C 
ATOM     14  O   UNL     1       2.959  58.783  24.689  0.00  0.00    +0.000 OA
BRANCH  13  17
ATOM     15  C   UNL     1       6.067  60.627  21.574  0.00  0.00    +0.000 C 
ATOM     16  C   UNL     1       5.155  59.491  22.127  0.00  0.00    +0.000 C 
ATOM     17  C   UNL     1       4.293  60.170  23.206  0.00  0.00    +0.000 C 
ATOM     18  C   UNL     1       4.489  62.724  21.524  0.00  0.00    +0.000 C 
ATOM     19  N   UNL     1       5.064  61.397  23.534  0.00  0.00    +0.000 N 
ATOM     20  C   UNL     1       5.558  61.911  22.251  0.00  0.00    +0.000 C 
ATOM     21  H   UNL     1       5.845  61.172  24.151  0.00  0.00    +0.000 HD
ATOM     22  H   UNL     1       4.489  62.085  24.018  0.00  0.00    +0.000 HD
BRANCH  15  24
ATOM     23  C   UNL     1       7.508  59.718  19.686  0.00  0.00    +0.000 C 
ATOM     24  C   UNL     1       6.379  60.671  20.071  0.00  0.00    +0.000 C 
BRANCH  24  25
ATOM     25  O   UNL     1       6.723  61.979  19.641  0.00  0.00    +0.000 OA
ATOM     26  H   UNL     1       6.823  62.557  20.413  0.00  0.00    +0.000 HD
ENDBRANCH  24  25
ENDBRANCH  15  24
BRANCH  16  28
ATOM     27  C   UNL     1       4.686  57.096  21.183  0.00  0.00    +0.000 C 
ATOM     28  C   UNL     1       4.389  58.589  21.141  0.00  0.00    +0.000 C 
ENDBRANCH  16  28
ENDBRANCH  13  17
ENDBRANCH   1  13
BRANCH   2  29
ATOM     29  O   UNL     1       5.939  58.623  28.250  0.00  0.00    +0.000 OA
ATOM     30  H   UNL     1       6.609  58.566  28.950  0.00  0.00    +0.000 HD
ENDBRANCH   2  29
BRANCH   5  31
ATOM     31  O   UNL     1       4.460  63.071  25.885  0.00  0.00    +0.000 OA
BRANCH  31  32
ATOM     32  O   UNL     1       3.148  62.840  25.288  0.00  0.00    +0.000 OA
ATOM     33  H   UNL     1       3.108  61.936  24.937  0.00  0.00    +0.000 HD
ENDBRANCH  31  32
ENDBRANCH   5  31
TORSDOF 10
ENDMDL

MODEL 21
ROOT
ATOM      1  C   UNL     1       0.000   0.000   0.000  0.00  0.00    +0.000 C
ENDROOT
TORSDOF 0
ENDMDL

MODEL 22
REMARK VINA RESULT:      -5.9      0.000      0.000
REMARK  Name = 
REMARK  18 active torsions:
REMARK  status: ('A' for Active; 'I' for Inactive)
REMARK    1  A    between atoms: O_1  and  C_29
REMARK    2  A    between atoms: C_2  and  C_29
REMARK    3  A    between atoms: C_3  and  N_14
REMARK    4  A    between atoms: C_3  and  C_21
REMARK    5  A    between atoms: C_4  and  N_6
REMARK    6  A    between atoms: N_6  and  C_29
REMARK    7  A    between atoms: C_7  and  C_15
REMARK    8  A    between atoms: C_7  and  C_18
REMARK    9  A    between atoms: O_8  and  C_20
REMARK   10  A    between atoms: C_9  and  C_27
REMARK   11  A    between atoms: S_11  and  N_14
REMARK   12  A    between atoms: S_11  and  O_17
REMARK   13  A    between atoms: S_11  and  O_23
REMARK   14  A    between atoms: S_11  and  C_24
REMARK   15  A    between atoms: C_12  and  C_13
REMARK   16  A    between atoms: N_14  and  C_27
REMARK   17  A    between atoms: C_16  and  O_28
REMARK   18  A    between atoms: C_20  and  C_26
REMARK                            x       y       z     vdW  Elec       q    Type
REMARK                         _______ _______ _______ _____ _____    ______ ____
ROOT
ATOM      1  N   UNL     1       5.155  56.824  22.951  0.00  0.00    +0.000 N 
ATOM      2  H   UNL     1       6.126  56.704  23.057  0.00  0.00    +0.000 HD
ENDROOT
BRANCH   1   3
ATOM      3  C   UNL     1       4.475  56.387  21.791  0.00  0.00    +0.000 A 
ATOM      4  C   UNL     1       3.599  55.302  21.847  0.00  0.00    +0.000 A 
ATOM      5  C   UNL     1       3.935  56.670  19.426  0.00  0.00    +0.000 A 
ATOM      6  C   UNL     1       4.635  57.059  20.567  0.00  0.00    +0.000 A 
ATOM      7  C   UNL     1       3.057  55.589  19.497  0.00  0.00    +0.000 A 
ATOM      8  C   UNL     1       2.906  54.909  20.704  0.00  0.00    +0.000 A 
BRANCH   6   9
ATOM      9  O   UNL     1       5.511  58.111  20.521  0.00  0.00    +0.000 OA
ATOM     10  H   UNL     1       6.207  58.114  19.895  0.00  0.00    +0.000 HD
ENDBRANCH   6   9
BRANCH   8  11
ATOM     11  S   UNL     1       1.821  53.563  20.806  0.00  0.00    +0.000 S 
BRANCH  11  12
ATOM     12  O   UNL     1       1.777  53.021  22.315  0.00  0.00    +0.000 OA
ATOM     13  H   UNL     1       1.176  53.572  22.840  0.00  0.00    +0.000 HD
ENDBRANCH  11  12
BRANCH  11  14
ATOM     14  O   UNL     1       0.331  54.097  20.560  0.00  0.00    +0.000 OA
ATOM     15  H   UNL     1      -0.020  53.712  19.741  0.00  0.00    +0.000 HD
ENDBRANCH  11  14
BRANCH  11  16
ATOM     16  N   UNL     1       2.149  52.283  19.769  0.00  0.00    +0.000 NA
BRANCH  16  17
ATOM     17  C   UNL     1       1.340  52.110  18.554  0.00  0.00    +0.000 C 
ATOM     18  C   UNL     1       1.421  50.712  17.951  0.00  0.00    +0.000 C 
ENDBRANCH  16  17
BRANCH  16  20
ATOM     19  C   UNL     1       4.080  50.989  20.646  0.00  0.00    +0.000 C 
ATOM     20  C   UNL     1       2.598  50.986  20.291  0.00  0.00    +0.000 C 
ENDBRANCH  16  20
ENDBRANCH  11  16
ENDBRANCH   8  11
ENDBRANCH   1   3
BRANCH   1  21
ATOM     21  C   UNL     1       4.339  57.466  23.987  0.00  0.00    +0.000 C 
BRANCH  21  22
ATOM     22  C   UNL     1       5.169  58.593  24.707  0.00  0.00    +0.000 C 
ATOM     23  C   UNL     1       3.596  59.855  27.796  0.00  0.00    +0.000 C 
ATOM     24  C   UNL     1       3.683  59.367  26.355  0.00  0.00    +0.000 C 
ATOM     25  C   UNL     1       4.890  60.066  24.346  0.00  0.00    +0.000 C 
ATOM     26  C   UNL     1       3.658  60.446  25.220  0.00  0.00    +0.000 C 
ATOM     27  N   UNL     1       4.945  58.632  26.180  0.00  0.00    +0.000 N 
ATOM     28  H   UNL     1       5.710  59.120  26.645  0.00  0.00    +0.000 HD
ATOM     29  H   UNL     1       4.902  57.697  26.585  0.00  0.00    +0.000 HD
BRANCH  25  30
ATOM     30  C   UNL     1       4.975  60.419  22.851  0.00  0.00    +0.000 C 
ATOM     31  C   UNL     1       5.659  61.706  22.426  0.00  0.00    +0.000 C 
ENDBRANCH  25  30
BRANCH  26  32
ATOM     32  O   UNL     1       2.430  60.246  24.504  0.00  0.00    +0.000 OA
ATOM     33  H   UNL     1       2.124  59.334  24.636  0.00  0.00    +0.000 HD
ENDBRANCH  26  32
BRANCH  26  35
ATOM     34 CL   UNL     1       3.062  63.077  24.585  0.00  0.00    +0.000 Cl
ATOM     35  C   UNL     1       3.719  61.892  25.752  0.00  0.00    +0.000 C 
ENDBRANCH  26  35
ENDBRANCH  21  22
BRANCH  21  36
ATOM     36  O   UNL     1       3.999  56.509  24.995  0.00  0.00    +0.000 OA
ATOM     37  H   UNL     1       3.795  56.971  25.824  0.00  0.00    +0.000 HD
ENDBRANCH  21  36
ENDBRANCH   1  21
TORSDOF 14
ENDMDL

MODEL 23
ROOT
ATOM      1  C   UNL     1       0.000   0.000   0.000  0.00  0.00    +0.000 C
ENDROOT
TORSDOF 0
ENDMDL

MODEL 24
REMARK VINA RESULT:      -5.9      0.000      0.000
REMARK  Name = 
REMARK  15 active torsions:
REMARK  status: ('A' for Active; 'I' for Inactive)
REMARK    1  A    between atoms: C_1  and  N_8
REMARK    2  A    between atoms: C_1  and  C_23
REMARK    3  A    between atoms: C_2  and  C_24
REMARK    4  A    between atoms: C_3  and  C_20
REMARK    5  A    between atoms: C_4  and  C_9
REMARK    6  A    between atoms: C_4  and  C_26
REMARK    7  A    between atoms: C_6  and  C_18
REMARK    8  A    between atoms: C_6  and  C_20
REMARK    9  A    between atoms: C_7  and  C_13
REMARK   10  A    between atoms: O_10  and  C_16
REMARK   11  A    between atoms: C_12  and  C_17
REMARK   12  A    between atoms: C_13  and  C_20
REMARK   13  A    between atoms: O_15  and  C_20
REMARK   14  A    between atoms: C_17  and  C_28
REMARK   15  A    between atoms: O_19  and  C_26
REMARK                            x       y       z     vdW  Elec       q    Type
REMARK                         _______ _______ _______ _____ _____    ______ ____
ROOT
ATOM      1  C   UNL     1       5.124  59.257  22.135  0.00  0.00    +0.000 C 
ATOM      2  N   UNL     1       4.731  62.531  23.115  0.00  0.00    +0.000 NA
ATOM      3  C   UNL     1       4.007  60.333  22.117  0.00  0.00    +0.000 C 
ATOM      4  N   UNL     1       6.639  60.832  20.939  0.00  0.00    +0.000 N 
ATOM      5  C   UNL     1       5.638  61.888  20.923  0.00  0.00    +0.000 C 
ATOM      6  C   UNL     1       4.728  61.665  22.144  0.00  0.00    +0.000 C 
ATOM      7  C   UNL     1       6.025  59.495  20.897  0.00  0.00    +0.000 C 
ATOM      8  H   UNL     1       7.191  60.914  21.793  0.00  0.00    +0.000 HD
ATOM      9  H   UNL     1       7.226  60.938  20.112  0.00  0.00    +0.000 HD
ENDROOT
BRANCH   2  10
ATOM     10  C   UNL     1       3.921  62.262  24.192  0.00  0.00    +0.000 C 
ATOM     11  O   UNL     1       2.762  62.667  24.264  0.00  0.00    +0.000 OA
BRANCH  10  15
ATOM     12  C   UNL     1       6.563  61.434  28.288  0.00  0.00    +0.000 C 
ATOM     13  N   UNL     1       5.304  62.214  26.274  0.00  0.00    +0.000 N 
ATOM     14  C   UNL     1       4.391  60.272  27.415  0.00  0.00    +0.000 C 
ATOM     15  C   UNL     1       4.526  61.374  25.303  0.00  0.00    +0.000 C 
ATOM     16  C   UNL     1       5.213  61.558  27.594  0.00  0.00    +0.000 C 
ATOM     17  C   UNL     1       3.538  60.612  26.187  0.00  0.00    +0.000 C 
ATOM     18  H   UNL     1       4.905  63.152  26.323  0.00  0.00    +0.000 HD
ATOM     19  H   UNL     1       6.277  62.300  25.980  0.00  0.00    +0.000 HD
BRANCH  14  20
ATOM     20  C   UNL     1       5.252  59.025  27.264  0.00  0.00    +0.000 C 
ATOM     21  O   UNL     1       6.127  58.915  26.402  0.00  0.00    +0.000 OA
BRANCH  20  22
ATOM     22  C   UNL     1       4.965  57.874  28.222  0.00  0.00    +0.000 C 
BRANCH  22  23
ATOM     23  O   UNL     1       5.660  58.027  29.450  0.00  0.00    +0.000 OA
ATOM     24  H   UNL     1       5.799  57.156  29.853  0.00  0.00    +0.000 HD
ENDBRANCH  22  23
ENDBRANCH  20  22
ENDBRANCH  14  20
BRANCH  17  26
ATOM     25  C   UNL     1       1.286  59.718  25.204  0.00  0.00    +0.000 C 
ATOM     26  C   UNL     1       2.747  59.464  25.540  0.00  0.00    +0.000 C 
ENDBRANCH  17  26
ENDBRANCH  10  15
ENDBRANCH   2  10
BRANCH   5  27
ATOM     27  O   UNL     1       6.305  63.122  20.948  0.00  0.00    +0.000 OA
ATOM     28  H   UNL     1       6.792  63.243  20.118  0.00  0.00    +0.000 HD
ENDBRANCH   5  27
BRANCH   1  29
ATOM     29  C   UNL     1       4.559  57.809  22.307  0.00  0.00    +0.000 C 
BRANCH  29  30
ATOM     30  C   UNL     1       4.557  57.022  20.976  0.00  0.00    +0.000 C 
ATOM     31  C   UNL     1       4.061  55.583  21.083  0.00  0.00    +0.000 C 
ENDBRANCH  29  30
BRANCH  29  33
ATOM     32  C   UNL     1       4.312  56.493  24.576  0.00  0.00    +0.000 C 
ATOM     33  C   UNL     1       5.214  57.032  23.481  0.00  0.00    +0.000 C 
ENDBRANCH  29  33
BRANCH  29  34
ATOM     34  O   UNL     1       3.178  57.938  22.710  0.00  0.00    +0.000 OA
ATOM     35  H   UNL     1       2.652  57.239  22.288  0.00  0.00    +0.000 HD
ENDBRANCH  29  34
ENDBRANCH   1  29
TORSDOF 11
ENDMDL

MODEL 25
REMARK VINA RESULT:      -7.2      0.000      0.000
REMARK  Name = 
REMARK  14 active torsions:
REMARK  status: ('A' for Active; 'I' for Inactive)
REMARK    1  A    between atoms: C_1  and  C_12
REMARK    2  A    between atoms: S_3  and  C_13
REMARK    3  A    between atoms: S_3  and  O_22
REMARK    4  A    between atoms: C_4  and  N_19
REMARK    5  A    between atoms: C_4  and  C_20
REMARK    6  A    between atoms: C_4  and  O_22
REMARK    7  A    between atoms: O_5  and  C_27
REMARK    8  A    between atoms: C_6  and  O_21
REMARK    9  A    between atoms: C_7  and  C_16
REMARK   10  A    between atoms: C_11  and  N_26
REMARK   11  A    between atoms: C_15  and  N_19
REMARK   12  A    between atoms: C_16  and  C_18
REMARK   13  A    between atoms: C_17  and  C_23
REMARK   14  A    between atoms: C_17  and  C_27
REMARK                            x       y       z     vdW  Elec       q    Type
REMARK                         _______ _______ _______ _____ _____    ______ ____
ROOT
ATOM      1  C   UNL     1       4.253  56.821  21.910  0.00  0.00    +0.000 C 
ATOM      2  O   UNL     1       3.893  56.361  22.993  0.00  0.00    +0.000 OA
ATOM      3  N   UNL     1       3.980  56.265  20.675  0.00  0.00    +0.000 N 
ATOM      4  H   UNL     1       4.289  56.779  19.895  0.00  0.00    +0.000 HD
ENDROOT
BRANCH   1   7
ATOM      5  C   UNL     1       4.136  59.395  21.873  0.00  0.00    +0.000 C 
ATOM      6  N   UNL     1       5.831  58.168  20.566  0.00  0.00    +0.000 N 
ATOM      7  C   UNL     1       5.057  58.148  21.814  0.00  0.00    +0.000 C 
ATOM      8  C   UNL     1       6.213  60.562  20.831  0.00  0.00    +0.000 C 
ATOM      9  C   UNL     1       7.627  59.094  19.325  0.00  0.00    +0.000 C 
ATOM     10  C   UNL     1       6.614  59.240  20.192  0.00  0.00    +0.000 C 
ATOM     11  C   UNL     1       4.687  60.594  21.051  0.00  0.00    +0.000 C 
ATOM     12  H   UNL     1       5.789  57.385  19.972  0.00  0.00    +0.000 HD
BRANCH   8  14
ATOM     13  O   UNL     1       7.080  61.700  18.882  0.00  0.00    +0.000 OA
ATOM     14  C   UNL     1       6.667  61.794  20.045  0.00  0.00    +0.000 C 
BRANCH  14  15
ATOM     15  C   UNL     1       6.595  63.161  20.720  0.00  0.00    +0.000 C 
BRANCH  15  16
ATOM     16  O   UNL     1       7.284  64.146  19.959  0.00  0.00    +0.000 OA
ATOM     17  H   UNL     1       8.001  63.727  19.460  0.00  0.00    +0.000 HD
ENDBRANCH  15  16
ENDBRANCH  14  15
ENDBRANCH   8  14
BRANCH   5  18
ATOM     18  C   UNL     1       3.755  59.832  23.307  0.00  0.00    +0.000 C 
ATOM     19  C   UNL     1       4.909  59.950  24.291  0.00  0.00    +0.000 C 
ENDBRANCH   5  18
ENDBRANCH   1   7
BRANCH   3  22
ATOM     20  C   UNL     1       2.378  55.091  19.345  0.00  0.00    +0.000 A 
ATOM     21  C   UNL     1       1.885  52.762  19.660  0.00  0.00    +0.000 A 
ATOM     22  C   UNL     1       3.315  55.055  20.391  0.00  0.00    +0.000 A 
ATOM     23  C   UNL     1       2.816  52.703  20.705  0.00  0.00    +0.000 A 
ATOM     24  C   UNL     1       1.661  53.958  18.977  0.00  0.00    +0.000 A 
ATOM     25  C   UNL     1       3.534  53.852  21.062  0.00  0.00    +0.000 A 
BRANCH  20  26
ATOM     26  O   UNL     1       2.183  56.284  18.693  0.00  0.00    +0.000 OA
ATOM     27  H   UNL     1       1.364  56.732  18.770  0.00  0.00    +0.000 HD
ENDBRANCH  20  26
BRANCH  23  28
ATOM     28  S   UNL     1       3.116  51.179  21.590  0.00  0.00    +0.000 S 
BRANCH  28  29
ATOM     29  O   UNL     1       4.415  50.613  20.706  0.00  0.00    +0.000 OA
BRANCH  29  30
ATOM     30  C   UNL     1       4.211  49.354  20.049  0.00  0.00    +0.000 C 
ATOM     31  C   UNL     1       5.597  48.856  19.645  0.00  0.00    +0.000 C 
BRANCH  30  33
ATOM     32  C   UNL     1       2.138  48.749  18.950  0.00  0.00    +0.000 C 
ATOM     33  N   UNL     1       3.364  49.530  18.867  0.00  0.00    +0.000 N 
ATOM     34  H   UNL     1       3.887  49.235  18.042  0.00  0.00    +0.000 HD
ATOM     35  H   UNL     1       3.107  50.515  18.809  0.00  0.00    +0.000 HD
ENDBRANCH  30  33
ENDBRANCH  29  30
ENDBRANCH  28  29
ENDBRANCH  23  28
ENDBRANCH   3  22
TORSDOF 11
ENDMDL

MODEL 26
ROOT
ATOM      1  C   UNL     1       0.000   0.000   0.000  0.00  0.00    +0.000 C
ENDROOT
TORSDOF 0
ENDMDL

MODEL 27
REMARK VINA RESULT:      -7.2      0.000      0.000
REMARK  Name = 
REMARK  14 active torsions:
REMARK  status: ('A' for Active; 'I' for Inactive)
REMARK    1  A    between atoms: C_3  and  O_28
REMARK    2  A    between atoms: N_5  and  C_22
REMARK    3  A    between atoms: N_6  and  C_14
REMARK    4  A    between atoms: N_6  and  S_15
REMARK    5  A    between atoms: N_6  and  C_24
REMARK    6  A    between atoms: C_8  and  S_15
REMARK    7  A    between atoms: C_10  and  C_23
REMARK    8  A    between atoms: C_11  and  C_21
REMARK    9  A    between atoms: O_12  and  S_15
REMARK   10  A    between atoms: C_14  and  C_26
REMARK   11  A    between atoms: S_15  and  O_25
REMARK   12  A    between atoms: C_16  and  C_24
REMARK   13  A    between atoms: O_18  and  C_27
REMARK   14  A    between atoms: C_22  and  C_27
REMARK                            x       y       z     vdW  Elec       q    Type
REMARK                         _______ _______ _______ _____ _____    ______ ____
ROOT
ATOM      1  N   UNL     1       7.147  58.709  18.618  0.00  0.00    +0.000 N 
ATOM      2  C   UNL     1       6.247  59.985  20.572  0.00  0.00    +0.000 A 
ATOM      3  C   UNL     1       7.381  62.272  19.377  0.00  0.00    +0.000 A 
ATOM      4  C   UNL     1       7.532  61.021  18.798  0.00  0.00    +0.000 A 
ATOM      5  C   UNL     1       8.260  59.064  17.716  0.00  0.00    +0.000 C 
ATOM      6  C   UNL     1       6.656  62.375  20.568  0.00  0.00    +0.000 A 
ATOM      7  C   UNL     1       6.977  59.888  19.392  0.00  0.00    +0.000 A 
ATOM      8  C   UNL     1       8.155  58.242  16.438  0.00  0.00    +0.000 C 
ATOM      9  C   UNL     1       6.076  61.240  21.185  0.00  0.00    +0.000 A 
ATOM     10  C   UNL     1       8.249  60.631  17.530  0.00  0.00    +0.000 C 
ATOM     11  H   UNL     1       6.647  57.864  18.672  0.00  0.00    +0.000 HD
ENDROOT
BRANCH   9  15
ATOM     12  C   UNL     1       3.878  61.770  24.824  0.00  0.00    +0.000 A 
ATOM     13  C   UNL     1       4.371  62.447  22.556  0.00  0.00    +0.000 A 
ATOM     14  C   UNL     1       4.804  60.741  24.696  0.00  0.00    +0.000 A 
ATOM     15  C   UNL     1       5.310  61.410  22.425  0.00  0.00    +0.000 A 
ATOM     16  C   UNL     1       3.660  62.626  23.746  0.00  0.00    +0.000 A 
ATOM     17  C   UNL     1       5.513  60.548  23.512  0.00  0.00    +0.000 A 
BRANCH  14  18
ATOM     18  S   UNL     1       5.113  59.683  26.027  0.00  0.00    +0.000 S 
BRANCH  18  19
ATOM     19  O   UNL     1       3.754  59.468  26.848  0.00  0.00    +0.000 OA
ATOM     20  H   UNL     1       3.159  58.892  26.342  0.00  0.00    +0.000 HD
ENDBRANCH  18  19
BRANCH  18  21
ATOM     21  O   UNL     1       6.085  60.384  27.091  0.00  0.00    +0.000 OA
ATOM     22  H   UNL     1       6.970  60.481  26.704  0.00  0.00    +0.000 HD
ENDBRANCH  18  21
BRANCH  18  23
ATOM     23  N   UNL     1       5.778  58.191  25.638  0.00  0.00    +0.000 NA
BRANCH  23  24
ATOM     24  C   UNL     1       4.904  57.112  25.155  0.00  0.00    +0.000 C 
ATOM     25  C   UNL     1       5.111  56.709  23.699  0.00  0.00    +0.000 C 
ENDBRANCH  23  24
BRANCH  23  27
ATOM     26  C   UNL     1       6.623  56.828  27.589  0.00  0.00    +0.000 C 
ATOM     27  C   UNL     1       6.948  57.711  26.389  0.00  0.00    +0.000 C 
ENDBRANCH  23  27
ENDBRANCH  18  23
ENDBRANCH  14  18
ENDBRANCH   9  15
BRANCH  10  28
ATOM     28  O   UNL     1       9.604  61.115  17.532  0.00  0.00    +0.000 OA
ATOM     29  H   UNL     1       9.919  61.190  18.446  0.00  0.00    +0.000 HD
ENDBRANCH  10  28
BRANCH   2  30
ATOM     30  O   UNL     1       5.749  58.823  21.102  0.00  0.00    +0.000 OA
ATOM     31  H   UNL     1       4.901  58.517  20.848  0.00  0.00    +0.000 HD
ENDBRANCH   2  30
BRANCH  10  32
ATOM     32  C   UNL     1       7.532  61.135  16.251  0.00  0.00    +0.000 C 
BRANCH  32  33
ATOM     33  N   UNL     1       8.374  62.026  15.424  0.00  0.00    +0.000 N 
ATOM     34  H   UNL     1       8.743  61.504  14.629  0.00  0.00    +0.000 HD
ATOM     35  H   UNL     1       9.148  62.381  15.986  0.00  0.00    +0.000 HD
ATOM     36  H   UNL     1       7.813  62.808  15.087  0.00  0.00    +0.000 HD
ENDBRANCH  32  33
ENDBRANCH  10  32
TORSDOF 11
ENDMDL

MODEL 28
ROOT
ATOM      1  C   UNL     1       0.000   0.000   0.000  0.00  0.00    +0.000 C
ENDROOT
TORSDOF 0
ENDMDL

MODEL 29
REMARK VINA RESULT:      -7.4      0.000      0.000
REMARK  Name = 
REMARK  12 active torsions:
REMARK  status: ('A' for Active; 'I' for Inactive)
REMARK    1  A    between atoms: C_1  and  O_16
REMARK    2  A    between atoms: C_1  and  C_17
REMARK    3  A    between atoms: C_2  and  C_9
REMARK    4  A    between atoms: C_2  and  C_22
REMARK    5  A    between atoms: C_7  and  C_25
REMARK    6  A    between atoms: C_12  and  O_16
REMARK    7  A    between atoms: C_13  and  O_24
REMARK    8  A    between atoms: N_14  and  O_21
REMARK    9  A    between atoms: N_14  and  C_22
REMARK   10  A    between atoms: C_15  and  C_19
REMARK   11  A    between atoms: O_20  and  C_25
REMARK   12  A    between atoms: O_21  and  O_24
REMARK                            x       y       z     vdW  Elec       q    Type
REMARK                         _______ _______ _______ _____ _____    ______ ____
ROOT
ATOM      1  C   UNL     1       5.140  57.817  22.275  0.00  0.00    +0.000 C 
ATOM      2  O   UNL     1       5.364  57.932  23.475  0.00  0.00    +0.000 OA
ENDROOT
BRANCH   1   7
ATOM      3  N   UNL     1       4.215  56.784  20.208  0.00  0.00    +0.000 N 
ATOM      4  C   UNL     1       3.928  55.549  22.204  0.00  0.00    +0.000 C 
ATOM      5  C   UNL     1       3.120  54.846  21.118  0.00  0.00    +0.000 C 
ATOM      6  C   UNL     1       2.672  55.546  18.706  0.00  0.00    +0.000 C 
ATOM      7  C   UNL     1       4.018  56.969  21.664  0.00  0.00    +0.000 C 
ATOM      8  C   UNL     1       3.697  55.460  19.830  0.00  0.00    +0.000 C 
ATOM      9  H   UNL     1       5.209  56.840  19.986  0.00  0.00    +0.000 HD
ATOM     10  H   UNL     1       3.720  57.512  19.693  0.00  0.00    +0.000 HD
BRANCH   5  13
ATOM     11  C   UNL     1       2.191  52.604  21.712  0.00  0.00    +0.000 C 
ATOM     12 CL   UNL     1       2.239  50.892  21.800  0.00  0.00    +0.000 Cl
ATOM     13  C   UNL     1       3.177  53.342  21.187  0.00  0.00    +0.000 C 
BRANCH  13  14
ATOM     14  O   UNL     1       4.324  52.767  20.673  0.00  0.00    +0.000 OA
ATOM     15  H   UNL     1       4.544  52.889  19.770  0.00  0.00    +0.000 HD
ENDBRANCH  13  14
ENDBRANCH   5  13
ENDBRANCH   1   7
BRANCH   1  16
ATOM     16  O   UNL     1       5.926  58.341  21.245  0.00  0.00    +0.000 OA
BRANCH  16  20
ATOM     17  C   UNL     1       5.848  62.504  21.026  0.00  0.00    +0.000 A 
ATOM     18  C   UNL     1       6.761  60.399  20.262  0.00  0.00    +0.000 A 
ATOM     19  C   UNL     1       5.011  61.828  21.918  0.00  0.00    +0.000 A 
ATOM     20  C   UNL     1       5.897  59.736  21.134  0.00  0.00    +0.000 A 
ATOM     21  C   UNL     1       6.714  61.791  20.191  0.00  0.00    +0.000 A 
ATOM     22  C   UNL     1       5.035  60.437  21.976  0.00  0.00    +0.000 A 
BRANCH  21  23
ATOM     23  O   UNL     1       7.497  62.549  19.349  0.00  0.00    +0.000 OA
BRANCH  23  24
ATOM     24  O   UNL     1       7.500  61.931  18.032  0.00  0.00    +0.000 OA
BRANCH  24  25
ATOM     25  N   UNL     1       8.733  62.237  17.326  0.00  0.00    +0.000 NA
ATOM     26  H   UNL     1       9.512  62.315  17.980  0.00  0.00    +0.000 HD
BRANCH  25  27
ATOM     27  C   UNL     1       8.933  61.105  16.420  0.00  0.00    +0.000 C 
BRANCH  27  28
ATOM     28  C   UNL     1       8.571  59.784  17.100  0.00  0.00    +0.000 C 
ATOM     29  C   UNL     1       7.741  58.860  16.220  0.00  0.00    +0.000 C 
ENDBRANCH  27  28
ENDBRANCH  25  27
ENDBRANCH  24  25
ENDBRANCH  23  24
ENDBRANCH  21  23
ENDBRANCH  16  20
ENDBRANCH   1  16
TORSDOF 10
ENDMDL

MODEL 30
REMARK VINA RESULT:      -7.0      0.000      0.000
REMARK  Name = 
REMARK  10 active torsions:
REMARK  status: ('A' for Active; 'I' for Inactive)
REMARK    1  A    between atoms: C_2  and  C_9
REMARK    2  A    between atoms: C_3  and  N_13
REMARK    3  A    between atoms: C_4  and  C_16
REMARK    4  A    between atoms: C_8  and  N_17
REMARK    5  A    between atoms: C_8  and  C_21
REMARK    6  A    between atoms: C_8  and  C_26
REMARK    7  A    between atoms: C_10  and  N_17
REMARK    8  A    between atoms: N_11  and  C_27
REMARK    9  A    between atoms: C_12  and  C_28
REMARK   10  A    between atoms: C_16  and  C_23
REMARK                            x       y       z     vdW  Elec       q    Type
REMARK                         _______ _______ _______ _____ _____    ______ ____
ROOT
ATOM      1  C   UNL     1       5.160  61.076  22.747  0.00  0.00    +0.000 A 
ATOM      2  C   UNL     1       4.789  58.894  23.628  0.00  0.00    +0.000 A 
ATOM      3  C   UNL     1       5.316  60.578  21.476  0.00  0.00    +0.000 A 
ATOM      4  O   UNL     1       5.382  62.871  21.381  0.00  0.00    +0.000 OA
ATOM      5  O   UNL     1       5.333  62.427  22.801  0.00  0.00    +0.000 OA
ATOM      6  C   UNL     1       5.165  59.222  21.234  0.00  0.00    +0.000 A 
ATOM      7  C   UNL     1       5.616  61.697  20.555  0.00  0.00    +0.000 C 
ATOM      8  C   UNL     1       4.841  58.373  22.304  0.00  0.00    +0.000 A 
ATOM      9  C   UNL     1       4.913  60.269  23.841  0.00  0.00    +0.000 A 
ENDROOT
BRANCH   2  11
ATOM     10  C   UNL     1       3.677  57.914  25.669  0.00  0.00    +0.000 C 
ATOM     11  N   UNL     1       4.641  57.967  24.679  0.00  0.00    +0.000 N 
ATOM     12  O   UNL     1       2.712  58.658  25.762  0.00  0.00    +0.000 OA
ATOM     13  H   UNL     1       5.321  57.256  24.713  0.00  0.00    +0.000 HD
BRANCH  10  16
ATOM     14  C   UNL     1       5.013  56.774  27.566  0.00  0.00    +0.000 A 
ATOM     15  C   UNL     1       3.134  54.730  27.394  0.00  0.00    +0.000 A 
ATOM     16  C   UNL     1       3.942  56.793  26.664  0.00  0.00    +0.000 A 
ATOM     17  C   UNL     1       5.087  55.639  28.400  0.00  0.00    +0.000 A 
ATOM     18  N   UNL     1       3.010  55.785  26.572  0.00  0.00    +0.000 NA
ATOM     19  C   UNL     1       4.146  54.609  28.316  0.00  0.00    +0.000 A 
BRANCH  17  22
ATOM     20  O   UNL     1       7.236  55.001  29.169  0.00  0.00    +0.000 OA
ATOM     21  N   UNL     1       5.823  55.923  30.680  0.00  0.00    +0.000 N 
ATOM     22  C   UNL     1       6.146  55.487  29.426  0.00  0.00    +0.000 C 
ATOM     23  H   UNL     1       6.480  55.853  31.410  0.00  0.00    +0.000 HD
ATOM     24  H   UNL     1       4.934  56.309  30.854  0.00  0.00    +0.000 HD
ENDBRANCH  17  22
BRANCH  14  25
ATOM     25  C   UNL     1       6.036  57.882  27.663  0.00  0.00    +0.000 C 
ATOM     26  C   UNL     1       7.236  57.650  26.754  0.00  0.00    +0.000 C 
ENDBRANCH  14  25
ENDBRANCH  10  16
ENDBRANCH   2  11
BRANCH   8  27
ATOM     27  N   UNL     1       4.734  56.983  22.067  0.00  0.00    +0.000 N 
ATOM     28  H   UNL     1       3.895  56.512  22.272  0.00  0.00    +0.000 HD
ATOM     29  H   UNL     1       5.499  56.487  21.695  0.00  0.00    +0.000 HD
ENDBRANCH   8  27
BRANCH   7  30
ATOM     30  C   UNL     1       7.042  61.790  19.945  0.00  0.00    +0.000 C 
ATOM     31  C   UNL     1       7.496  63.244  19.805  0.00  0.00    +0.000 C 
BRANCH  30  32
ATOM     32  N   UNL     1       7.141  61.118  18.638  0.00  0.00    +0.000 N 
ATOM     33  H   UNL     1       6.334  61.126  18.073  0.00  0.00    +0.000 HD
BRANCH  32  34
ATOM     34  C   UNL     1       8.247  60.483  18.128  0.00  0.00    +0.000 C 
ATOM     35  C   UNL     1       8.761  60.531  16.898  0.00  0.00    +0.000 C 
ENDBRANCH  32  34
ENDBRANCH  30  32
ENDBRANCH   7  30
TORSDOF 8
ENDMDL

MODEL 31
ROOT
ATOM      1  C   UNL     1       0.000   0.000   0.000  0.00  0.00    +0.000 C
ENDROOT
TORSDOF 0
ENDMDL

MODEL 32
ROOT
ATOM      1  C   UNL     1       0.000   0.000   0.000  0.00  0.00    +0.000 C
ENDROOT
TORSDOF 0
ENDMDL

MODEL 33
ROOT
ATOM      1  C   UNL     1       0.000   0.000   0.000  0.00  0.00    +0.000 C
ENDROOT
TORSDOF 0
ENDMDL

MODEL 34
REMARK VINA RESULT:      -7.4      0.000      0.000
REMARK  Name = 
REMARK  14 active torsions:
REMARK  status: ('A' for Active; 'I' for Inactive)
REMARK    1  A    between atoms: C_1  and  O_20
REMARK    2  A    between atoms: C_2  and  C_27
REMARK    3  A    between atoms: C_4  and  O_12
REMARK    4  A    between atoms: N_5  and  C_11
REMARK    5  A    between atoms: N_5  and  N_21
REMARK    6  A    between atoms: C_9  and  N_21
REMARK    7  A    between atoms: C_10  and  C_18
REMARK    8  A    between atoms: C_10  and  C_28
REMARK    9  A    between atoms: O_12  and  O_15
REMARK   10  A    between atoms: C_13  and  N_19
REMARK   11  A    between atoms: C_13  and  C_23
REMARK   12  A    between atoms: C_17  and  C_27
REMARK   13  A    between atoms: C_22  and  C_26
REMARK   14  A    between atoms: C_24  and  C_25
REMARK                            x       y       z     vdW  Elec       q    Type
REMARK                         _______ _______ _______ _____ _____    ______ ____
ROOT
ATOM      1  C   UNL     1       5.143  61.475  21.833  0.00  0.00    +0.000 A 
ATOM      2  C   UNL     1       6.932  62.138  19.841  0.00  0.00    +0.000 A 
ATOM      3  C   UNL     1       5.370  62.816  21.547  0.00  0.00    +0.000 A 
ATOM      4  C   UNL     1       5.822  60.428  21.172  0.00  0.00    +0.000 A 
ATOM      5  C   UNL     1       6.281  63.151  20.555  0.00  0.00    +0.000 A 
ATOM      6  C   UNL     1       6.717  60.774  20.127  0.00  0.00    +0.000 A 
ENDROOT
BRANCH   6   9
ATOM      7  N   UNL     1       7.923  58.685  19.999  0.00  0.00    +0.000 N 
ATOM      8  N   UNL     1       7.562  59.789  17.978  0.00  0.00    +0.000 N 
ATOM      9  C   UNL     1       7.434  59.694  19.345  0.00  0.00    +0.000 C 
ATOM     10  H   UNL     1       8.394  57.967  19.516  0.00  0.00    +0.000 HD
ATOM     11  H   UNL     1       7.821  58.636  20.977  0.00  0.00    +0.000 HD
ATOM     12  H   UNL     1       7.686  60.685  17.592  0.00  0.00    +0.000 HD
BRANCH   8  13
ATOM     13  C   UNL     1       7.527  58.662  17.062  0.00  0.00    +0.000 C 
ATOM     14  C   UNL     1       8.806  58.589  16.245  0.00  0.00    +0.000 C 
ENDBRANCH   8  13
ENDBRANCH   6   9
BRANCH   1  15
ATOM     15  O   UNL     1       4.206  61.195  22.793  0.00  0.00    +0.000 OA
ATOM     16  H   UNL     1       3.481  61.775  22.922  0.00  0.00    +0.000 HD
ENDBRANCH   1  15
BRANCH   4  17
ATOM     17  N   UNL     1       5.508  59.055  21.453  0.00  0.00    +0.000 N 
ATOM     18  H   UNL     1       6.177  58.483  21.896  0.00  0.00    +0.000 HD
BRANCH  17  19
ATOM     19  N   UNL     1       4.239  58.516  21.097  0.00  0.00    +0.000 NA
ATOM     20  H   UNL     1       3.620  58.543  21.908  0.00  0.00    +0.000 HD
BRANCH  19  23
ATOM     21  C   UNL     1       3.859  56.127  21.677  0.00  0.00    +0.000 C 
ATOM     22  N   UNL     1       3.568  56.890  19.483  0.00  0.00    +0.000 N 
ATOM     23  C   UNL     1       4.397  57.131  20.653  0.00  0.00    +0.000 C 
ATOM     24  C   UNL     1       3.672  54.872  20.808  0.00  0.00    +0.000 C 
ATOM     25  C   UNL     1       3.416  55.424  19.390  0.00  0.00    +0.000 C 
ATOM     26  C   UNL     1       2.074  55.099  18.739  0.00  0.00    +0.000 C 
ATOM     27  H   UNL     1       4.023  57.254  18.645  0.00  0.00    +0.000 HD
ATOM     28  H   UNL     1       2.664  57.357  19.562  0.00  0.00    +0.000 HD
BRANCH  24  30
ATOM     29  O   UNL     1       1.572  54.304  21.910  0.00  0.00    +0.000 OA
ATOM     30  C   UNL     1       2.580  53.952  21.310  0.00  0.00    +0.000 C 
BRANCH  30  32
ATOM     31  O   UNL     1       3.815  52.021  20.653  0.00  0.00    +0.000 OA
ATOM     32  C   UNL     1       2.748  52.476  21.032  0.00  0.00    +0.000 C 
ENDBRANCH  30  32
ENDBRANCH  24  30
BRANCH  21  34
ATOM     33  C   UNL     1       4.288  56.547  24.168  0.00  0.00    +0.000 C 
ATOM     34  C   UNL     1       4.815  55.959  22.869  0.00  0.00    +0.000 C 
ENDBRANCH  21  34
ENDBRANCH  19  23
ENDBRANCH  17  19
ENDBRANCH   4  17
BRANCH   2  35
ATOM     35  O   UNL     1       7.834  62.548  18.887  0.00  0.00    +0.000 OA
BRANCH  35  36
ATOM     36  O   UNL     1       7.704  63.999  18.823  0.00  0.00    +0.000 OA
ATOM     37  H   UNL     1       8.309  64.406  19.462  0.00  0.00    +0.000 HD
ENDBRANCH  35  36
ENDBRANCH   2  35
TORSDOF 11
ENDMDL

MODEL 35
ROOT
ATOM      1  C   UNL     1       0.000   0.000   0.000  0.00  0.00    +0.000 C
ENDROOT
TORSDOF 0
ENDMDL

MODEL 36
REMARK VINA RESULT:      -6.7      0.000      0.000
REMARK  Name = 
REMARK  14 active torsions:
REMARK  status: ('A' for Active; 'I' for Inactive)
REMARK    1  A    between atoms: C_2  and  C_9
REMARK    2  A    between atoms: C_4  and  C_16
REMARK    3  A    between atoms: C_6  and  C_15
REMARK    4  A    between atoms: C_8  and  C_27
REMARK    5  A    between atoms: C_9  and  C_26
REMARK    6  A    between atoms: O_10  and  C_13
REMARK    7  A    between atoms: C_11  and  N_19
REMARK    8  A    between atoms: C_14  and  C_25
REMARK    9  A    between atoms: C_14  and  C_26
REMARK   10  A    between atoms: C_15  and  C_17
REMARK   11  A    between atoms: C_18  and  O_22
REMARK   12  A    between atoms: O_20  and  O_22
REMARK   13  A    between atoms: O_20  and  C_26
REMARK   14  A    between atoms: C_27  and  C_28
REMARK                            x       y       z     vdW  Elec       q    Type
REMARK                         _______ _______ _______ _____ _____    ______ ____
ROOT
ATOM      1  C   UNL     1       3.776  59.994  22.959  0.00  0.00    +0.000 C 
ATOM      2  N   UNL     1       4.626  60.836  23.644  0.00  0.00    +0.000 N 
ATOM      3  O   UNL     1       3.032  59.153  23.460  0.00  0.00    +0.000 OA
ATOM      4  H   UNL     1       5.193  61.418  23.088  0.00  0.00    +0.000 HD
ENDROOT
BRANCH   1   8
ATOM      5  C   UNL     1       5.572  61.634  20.706  0.00  0.00    +0.000 C 
ATOM      6  C   UNL     1       4.927  59.364  20.729  0.00  0.00    +0.000 C 
ATOM      7  N   UNL     1       4.172  61.609  21.127  0.00  0.00    +0.000 N 
ATOM      8  C   UNL     1       3.832  60.190  21.421  0.00  0.00    +0.000 C 
ATOM      9  F   UNL     1       6.224  62.529  21.485  0.00  0.00    +0.000 F 
ATOM     10  C   UNL     1       6.153  60.252  20.920  0.00  0.00    +0.000 C 
ATOM     11  H   UNL     1       3.576  61.966  20.380  0.00  0.00    +0.000 HD
ATOM     12  H   UNL     1       4.029  62.196  21.949  0.00  0.00    +0.000 HD
BRANCH  10  15
ATOM     13  O   UNL     1       7.931  58.988  19.899  0.00  0.00    +0.000 OA
ATOM     14  C   UNL     1       7.543  61.139  18.942  0.00  0.00    +0.000 C 
ATOM     15  C   UNL     1       7.271  60.027  19.923  0.00  0.00    +0.000 C 
ENDBRANCH  10  15
BRANCH   6  16
ATOM     16  C   UNL     1       5.132  57.928  21.226  0.00  0.00    +0.000 C 
ATOM     17  C   UNL     1       4.214  56.933  20.531  0.00  0.00    +0.000 C 
ENDBRANCH   6  16
ENDBRANCH   1   8
BRANCH   2  20
ATOM     18  C   UNL     1       5.022  61.437  27.787  0.00  0.00    +0.000 A 
ATOM     19  C   UNL     1       5.349  59.995  25.865  0.00  0.00    +0.000 A 
ATOM     20  C   UNL     1       4.788  60.970  25.039  0.00  0.00    +0.000 A 
ATOM     21  C   UNL     1       4.337  62.172  25.607  0.00  0.00    +0.000 A 
ATOM     22  C   UNL     1       5.466  60.229  27.240  0.00  0.00    +0.000 A 
ATOM     23  C   UNL     1       4.451  62.413  26.972  0.00  0.00    +0.000 A 
BRANCH  21  24
ATOM     24  O   UNL     1       3.778  63.111  24.776  0.00  0.00    +0.000 OA
ATOM     25  H   UNL     1       3.939  64.023  24.926  0.00  0.00    +0.000 HD
ENDBRANCH  21  24
BRANCH  22  26
ATOM     26  O   UNL     1       6.015  59.345  28.144  0.00  0.00    +0.000 OA
BRANCH  26  27
ATOM     27  O   UNL     1       6.999  58.510  27.464  0.00  0.00    +0.000 OA
BRANCH  27  28
ATOM     28  C   UNL     1       6.360  57.248  27.220  0.00  0.00    +0.000 C 
BRANCH  28  30
ATOM     29  C   UNL     1       5.555  55.331  28.735  0.00  0.00    +0.000 C 
ATOM     30  C   UNL     1       6.661  56.331  28.415  0.00  0.00    +0.000 C 
ENDBRANCH  28  30
BRANCH  28  31
ATOM     31  C   UNL     1       6.837  56.718  25.862  0.00  0.00    +0.000 C 
ATOM     32  C   UNL     1       5.766  56.743  24.784  0.00  0.00    +0.000 C 
ENDBRANCH  28  31
ENDBRANCH  27  28
ENDBRANCH  26  27
ENDBRANCH  22  26
ENDBRANCH   2  20
TORSDOF 10
ENDMDL

MODEL 37
REMARK VINA RESULT:      -5.9      0.000      0.000
REMARK  Name = 
REMARK  17 active torsions:
REMARK  status: ('A' for Active; 'I' for Inactive)
REMARK    1  A    between atoms: N_2  and  C_17
REMARK    2  A    between atoms: C_3  and  C_18
REMARK    3  A    between atoms: C_3  and  N_19
REMARK    4  A    between atoms: O_4  and  C_18
REMARK    5  A    between atoms: C_5  and  C_12
REMARK    6  A    between atoms: C_5  and  O_25
REMARK    7  A    between atoms: C_5  and  C_26
REMARK    8  A    between atoms: N_6  and  S_9
REMARK    9  A    between atoms: N_6  and  C_17
REMARK   10  A    between atoms: N_6  and  C_24
REMARK   11  A    between atoms: C_7  and  C_13
REMARK   12  A    between atoms: S_9  and  O_21
REMARK   13  A    between atoms: S_9  and  C_22
REMARK   14  A    between atoms: S_9  and  O_23
REMARK   15  A    between atoms: C_11  and  C_14
REMARK   16  A    between atoms: C_11  and  C_16
REMARK   17  A    between atoms: C_15  and  C_24
REMARK                            x       y       z     vdW  Elec       q    Type
REMARK                         _______ _______ _______ _____ _____    ______ ____
ROOT
ATOM      1  C   UNL     1       4.778  56.742  21.581  0.00  0.00    +0.000 C 
ENDROOT
BRANCH   1   6
ATOM      2  C   UNL     1       5.124  60.359  22.607  0.00  0.00    +0.000 C 
ATOM      3  C   UNL     1       4.401  61.529  21.947  0.00  0.00    +0.000 C 
ATOM      4  C   UNL     1       4.609  58.263  23.746  0.00  0.00    +0.000 C 
ATOM      5  C   UNL     1       4.436  59.797  23.883  0.00  0.00    +0.000 C 
ATOM      6  C   UNL     1       4.447  58.117  22.218  0.00  0.00    +0.000 C 
ATOM      7  N   UNL     1       5.273  59.221  21.675  0.00  0.00    +0.000 N 
ATOM      8  H   UNL     1       6.251  58.936  21.620  0.00  0.00    +0.000 HD
ATOM      9  H   UNL     1       4.973  59.476  20.734  0.00  0.00    +0.000 HD
BRANCH   5  10
ATOM     10  O   UNL     1       3.011  60.060  23.828  0.00  0.00    +0.000 OA
ATOM     11  H   UNL     1       2.805  60.562  23.023  0.00  0.00    +0.000 HD
ENDBRANCH   5  10
BRANCH   4  12
ATOM     12  C   UNL     1       5.883  57.647  24.367  0.00  0.00    +0.000 C 
ATOM     13  C   UNL     1       5.757  56.837  25.650  0.00  0.00    +0.000 C 
ENDBRANCH   4  12
BRANCH   5  14
ATOM     14  C   UNL     1       4.947  60.462  25.177  0.00  0.00    +0.000 C 
BRANCH  14  15
ATOM     15  N   UNL     1       4.063  60.186  26.325  0.00  0.00    +0.000 N 
ATOM     16  H   UNL     1       3.546  59.323  26.155  0.00  0.00    +0.000 HD
ATOM     17  H   UNL     1       3.406  60.958  26.441  0.00  0.00    +0.000 HD
ATOM     18  H   UNL     1       4.624  60.086  27.170  0.00  0.00    +0.000 HD
ENDBRANCH  14  15
ENDBRANCH   5  14
ENDBRANCH   1   6
BRANCH   1  22
ATOM     19  C   UNL     1       3.014  55.743  23.097  0.00  0.00    +0.000 A 
ATOM     20  C   UNL     1       3.769  54.434  21.213  0.00  0.00    +0.000 A 
ATOM     21  C   UNL     1       2.085  53.543  22.717  0.00  0.00    +0.000 A 
ATOM     22  C   UNL     1       3.828  55.622  21.957  0.00  0.00    +0.000 A 
ATOM     23  C   UNL     1       2.145  54.714  23.470  0.00  0.00    +0.000 A 
ATOM     24  C   UNL     1       2.901  53.413  21.599  0.00  0.00    +0.000 A 
BRANCH  24  25
ATOM     25  S   UNL     1       2.851  51.958  20.663  0.00  0.00    +0.000 S 
BRANCH  25  26
ATOM     26  O   UNL     1       4.338  51.442  20.359  0.00  0.00    +0.000 OA
ATOM     27  H   UNL     1       4.944  52.198  20.333  0.00  0.00    +0.000 HD
ENDBRANCH  25  26
BRANCH  25  28
ATOM     28  O   UNL     1       2.229  50.785  21.566  0.00  0.00    +0.000 OA
ATOM     29  H   UNL     1       2.202  51.071  22.493  0.00  0.00    +0.000 HD
ENDBRANCH  25  28
BRANCH  25  30
ATOM     30  N   UNL     1       2.025  52.036  19.204  0.00  0.00    +0.000 NA
BRANCH  30  32
ATOM     31  C   UNL     1       1.553  54.348  18.294  0.00  0.00    +0.000 C 
ATOM     32  C   UNL     1       1.027  53.096  18.990  0.00  0.00    +0.000 C 
ENDBRANCH  30  32
BRANCH  30  33
ATOM     33  C   UNL     1       1.650  50.826  18.488  0.00  0.00    +0.000 C 
BRANCH  33  34
ATOM     34  N   UNL     1       2.730  49.875  18.645  0.00  0.00    +0.000 N 
ATOM     35  H   UNL     1       3.537  50.185  18.104  0.00  0.00    +0.000 HD
ATOM     36  H   UNL     1       2.427  48.960  18.310  0.00  0.00    +0.000 HD
ATOM     37  H   UNL     1       2.985  49.809  19.630  0.00  0.00    +0.000 HD
ENDBRANCH  33  34
ENDBRANCH  30  33
ENDBRANCH  25  30
ENDBRANCH  24  25
ENDBRANCH   1  22
BRANCH   1  38
ATOM     38  O   UNL     1       4.740  56.879  20.148  0.00  0.00    +0.000 OA
ATOM     39  H   UNL     1       4.567  57.805  19.915  0.00  0.00    +0.000 HD
ENDBRANCH   1  38
TORSDOF 14
ENDMDL

MODEL 38
REMARK VINA RESULT:      -6.3      0.000      0.000
REMARK  Name = 
REMARK  15 active torsions:
REMARK  status: ('A' for Active; 'I' for Inactive)
REMARK    1  A    between atoms: C_1  and  C_4
REMARK    2  A    between atoms: C_3  and  C_16
REMARK    3  A    between atoms: C_3  and  O_20
REMARK    4  A    between atoms: O_5  and  C_16
REMARK    5  A    between atoms: C_6  and  O_23
REMARK    6  A    between atoms: N_7  and  C_13
REMARK    7  A    between atoms: N_7  and  C_27
REMARK    8  A    between atoms: O_8  and  C_13
REMARK    9  A    between atoms: O_8  and  C_22
REMARK   10  A    between atoms: C_9  and  C_13
REMARK   11  A    between atoms: N_10  and  C_26
REMARK   12  A    between atoms: C_14  and  C_25
REMARK   13  A    between atoms: C_17  and  C_18
REMARK   14  A    between atoms: C_17  and  C_21
REMARK   15  A    between atoms: C_19  and  C_27
REMARK                            x       y       z     vdW  Elec       q    Type
REMARK                         _______ _______ _______ _____ _____    ______ ____
ROOT
ATOM      1  C   UNL     1       3.644  61.798  25.017  0.00  0.00    +0.000 C 
ATOM      2  N   UNL     1       4.821  61.672  24.304  0.00  0.00    +0.000 N 
ATOM      3  O   UNL     1       2.591  61.216  24.763  0.00  0.00    +0.000 OA
ATOM      4  H   UNL     1       5.559  62.260  24.585  0.00  0.00    +0.000 HD
ENDROOT
BRANCH   1   5
ATOM      5  C   UNL     1       3.736  62.859  26.137  0.00  0.00    +0.000 C 
ATOM      6  N   UNL     1       2.487  62.944  26.917  0.00  0.00    +0.000 N 
ATOM      7  C   UNL     1       1.969  63.183  29.276  0.00  0.00    +0.000 C 
ATOM      8  C   UNL     1       4.316  63.746  28.251  0.00  0.00    +0.000 C 
ATOM      9  C   UNL     1       4.793  62.660  27.242  0.00  0.00    +0.000 C 
ATOM     10  C   UNL     1       2.764  63.758  28.109  0.00  0.00    +0.000 C 
ATOM     11  H   UNL     1       2.188  62.010  27.197  0.00  0.00    +0.000 HD
ATOM     12  H   UNL     1       1.744  63.366  26.360  0.00  0.00    +0.000 HD
BRANCH   8  13
ATOM     13  O   UNL     1       4.848  65.014  27.754  0.00  0.00    +0.000 OA
ATOM     14  H   UNL     1       5.754  65.135  28.081  0.00  0.00    +0.000 HD
ENDBRANCH   8  13
BRANCH   9  15
ATOM     15  C   UNL     1       4.805  61.216  27.801  0.00  0.00    +0.000 C 
ATOM     16  C   UNL     1       6.118  60.489  27.537  0.00  0.00    +0.000 C 
ENDBRANCH   9  15
BRANCH   8  17
ATOM     17  C   UNL     1       4.854  63.652  29.684  0.00  0.00    +0.000 C 
BRANCH  17  18
ATOM     18  O   UNL     1       4.993  64.966  30.233  0.00  0.00    +0.000 OA
ATOM     19  H   UNL     1       4.241  65.512  29.958  0.00  0.00    +0.000 HD
ENDBRANCH  17  18
ENDBRANCH   8  17
ENDBRANCH   1   5
BRANCH   2  25
ATOM     20  C   UNL     1       5.867  60.663  20.919  0.00  0.00    +0.000 A 
ATOM     21  C   UNL     1       5.554  61.417  22.042  0.00  0.00    +0.000 A 
ATOM     22  C   UNL     1       5.727  59.276  20.977  0.00  0.00    +0.000 A 
ATOM     23  C   UNL     1       4.973  59.418  23.268  0.00  0.00    +0.000 A 
ATOM     24  C   UNL     1       5.279  58.646  22.144  0.00  0.00    +0.000 A 
ATOM     25  C   UNL     1       5.103  60.808  23.224  0.00  0.00    +0.000 A 
BRANCH  21  26
ATOM     26  O   UNL     1       5.681  62.783  22.026  0.00  0.00    +0.000 OA
ATOM     27  H   UNL     1       6.504  63.179  22.235  0.00  0.00    +0.000 HD
ENDBRANCH  21  26
BRANCH  24  28
ATOM     28  O   UNL     1       5.200  57.285  22.045  0.00  0.00    +0.000 OA
BRANCH  28  30
ATOM     29  C   UNL     1       3.464  55.668  22.483  0.00  0.00    +0.000 C 
ATOM     30  C   UNL     1       4.030  56.680  21.487  0.00  0.00    +0.000 C 
BRANCH  30  31
ATOM     31  N   UNL     1       4.448  55.975  20.272  0.00  0.00    +0.000 N 
ATOM     32  H   UNL     1       4.312  54.975  20.418  0.00  0.00    +0.000 HD
ATOM     33  H   UNL     1       5.425  56.217  20.109  0.00  0.00    +0.000 HD
BRANCH  31  35
ATOM     34  C   UNL     1       2.493  55.494  18.808  0.00  0.00    +0.000 C 
ATOM     35  C   UNL     1       3.708  56.372  19.076  0.00  0.00    +0.000 C 
ENDBRANCH  31  35
ENDBRANCH  30  31
ENDBRANCH  28  30
ENDBRANCH  24  28
ENDBRANCH   2  25
TORSDOF 11
ENDMDL

MODEL 39
REMARK VINA RESULT:      -7.6      0.000      0.000
REMARK  Name = 
REMARK  10 active torsions:
REMARK  status: ('A' for Active; 'I' for Inactive)
REMARK    1  A    between atoms: S_1  and  C_8
REMARK    2  A    between atoms: S_1  and  O_21
REMARK    3  A    between atoms: N_7  and  C_26
REMARK    4  A    between atoms: C_9  and  N_20
REMARK    5  A    between atoms: C_10  and  C_16
REMARK    6  A    between atoms: C_13  and  C_25
REMARK    7  A    between atoms: C_16  and  C_29
REMARK    8  A    between atoms: O_21  and  C_29
REMARK    9  A    between atoms: C_22  and  C_27
REMARK   10  A    between atoms: C_23  and  C_29
REMARK                            x       y       z     vdW  Elec       q    Type
REMARK                         _______ _______ _______ _____ _____    ______ ____
ROOT
ATOM      1  F   UNL     1       4.036  58.230  20.458  0.00  0.00    +0.000 F 
ATOM      2  N   UNL     1       5.502  58.481  22.203  0.00  0.00    +0.000 NA
ATOM      3  C   UNL     1       4.781  57.708  21.447  0.00  0.00    +0.000 C 
ENDROOT
BRANCH   3  11
ATOM      4  O   UNL     1       1.917  54.000  24.167  0.00  0.00    +0.000 OA
ATOM      5  N   UNL     1       4.161  55.586  20.426  0.00  0.00    +0.000 N 
ATOM      6  C   UNL     1       1.183  53.098  22.036  0.00  0.00    +0.000 C 
ATOM      7  C   UNL     1       2.074  54.280  19.952  0.00  0.00    +0.000 C 
ATOM      8  C   UNL     1       0.835  53.741  20.688  0.00  0.00    +0.000 C 
ATOM      9  C   UNL     1       3.211  54.601  20.921  0.00  0.00    +0.000 C 
ATOM     10  C   UNL     1       1.938  54.100  22.940  0.00  0.00    +0.000 C 
ATOM     11  C   UNL     1       4.792  56.196  21.631  0.00  0.00    +0.000 C 
ATOM     12  C   UNL     1       3.977  55.710  22.861  0.00  0.00    +0.000 C 
ATOM     13  C   UNL     1       2.684  55.207  22.217  0.00  0.00    +0.000 C 
ATOM     14  H   UNL     1       3.678  56.300  19.881  0.00  0.00    +0.000 HD
ATOM     15  H   UNL     1       4.858  55.157  19.817  0.00  0.00    +0.000 HD
BRANCH   6  16
ATOM     16  N   UNL     1      -0.037  52.638  22.715  0.00  0.00    +0.000 N 
ATOM     17  H   UNL     1      -0.454  53.415  23.230  0.00  0.00    +0.000 HD
ATOM     18  H   UNL     1       0.199  51.889  23.365  0.00  0.00    +0.000 HD
ATOM     19  H   UNL     1      -0.702  52.293  22.023  0.00  0.00    +0.000 HD
ENDBRANCH   6  16
BRANCH  12  21
ATOM     20  C   UNL     1       4.623  56.707  25.121  0.00  0.00    +0.000 C 
ATOM     21  C   UNL     1       3.891  56.696  23.999  0.00  0.00    +0.000 C 
ENDBRANCH  12  21
ENDBRANCH   3  11
BRANCH   2  28
ATOM     22  C   UNL     1       5.156  62.540  21.476  0.00  0.00    +0.000 A 
ATOM     23  N   UNL     1       3.459  60.084  23.423  0.00  0.00    +0.000 N 
ATOM     24  C   UNL     1       6.178  61.852  20.829  0.00  0.00    +0.000 A 
ATOM     25  N   UNL     1       4.265  61.975  22.330  0.00  0.00    +0.000 NA
ATOM     26  C   UNL     1       6.293  60.487  21.084  0.00  0.00    +0.000 A 
ATOM     27  C   UNL     1       4.397  60.655  22.553  0.00  0.00    +0.000 A 
ATOM     28  C   UNL     1       5.386  59.860  21.940  0.00  0.00    +0.000 A 
ATOM     29  H   UNL     1       2.772  60.649  23.846  0.00  0.00    +0.000 HD
ATOM     30  H   UNL     1       3.487  59.118  23.612  0.00  0.00    +0.000 HD
BRANCH  24  31
ATOM     31  S   UNL     1       7.323  62.650  19.726  0.00  0.00    +0.000 S 
BRANCH  31  32
ATOM     32  O   UNL     1       7.131  61.667  18.391  0.00  0.00    +0.000 OA
BRANCH  32  34
ATOM     33  C   UNL     1       8.902  61.286  16.708  0.00  0.00    +0.000 C 
ATOM     34  C   UNL     1       8.232  60.831  18.006  0.00  0.00    +0.000 C 
BRANCH  34  36
ATOM     35  C   UNL     1       8.010  58.728  16.591  0.00  0.00    +0.000 C 
ATOM     36  C   UNL     1       7.881  59.334  17.981  0.00  0.00    +0.000 C 
ENDBRANCH  34  36
ENDBRANCH  32  34
ENDBRANCH  31  32
ENDBRANCH  24  31
ENDBRANCH   2  28
TORSDOF 8
ENDMDL

MODEL 40
ROOT
ATOM      1  C   UNL     1       0.000   0.000   0.000  0.00  0.00    +0.000 C
ENDROOT
TORSDOF 0
ENDMDL

MODEL 41
REMARK VINA RESULT:      -6.7      0.000      0.000
REMARK  Name = 
REMARK  13 active torsions:
REMARK  status: ('A' for Active; 'I' for Inactive)
REMARK    1  A    between atoms: C_1  and  O_19
REMARK    2  A    between atoms: C_1  and  C_25
REMARK    3  A    between atoms: C_5  and  C_22
REMARK    4  A    between atoms: C_7  and  C_25
REMARK    5  A    between atoms: C_8  and  S_10
REMARK    6  A    between atoms: C_9  and  C_16
REMARK    7  A    between atoms: S_10  and  O_20
REMARK    8  A    between atoms: C_11  and  C_27
REMARK    9  A    between atoms: N_12  and  C_17
REMARK   10  A    between atoms: C_14  and  C_26
REMARK   11  A    between atoms: N_18  and  C_21
REMARK   12  A    between atoms: O_20  and  C_26
REMARK   13  A    between atoms: C_21  and  C_26
REMARK                            x       y       z     vdW  Elec       q    Type
REMARK                         _______ _______ _______ _____ _____    ______ ____
ROOT
ATOM      1  C   UNL     1       4.786  59.735  21.798  0.00  0.00    +0.000 A 
ATOM      2  C   UNL     1       5.006  62.099  21.871  0.00  0.00    +0.000 A 
ATOM      3  C   UNL     1       6.585  60.764  20.555  0.00  0.00    +0.000 A 
ATOM      4  C   UNL     1       5.273  57.542  21.585  0.00  0.00    +0.000 C 
ATOM      5  C   UNL     1       5.903  59.631  20.976  0.00  0.00    +0.000 A 
ATOM      6  C   UNL     1       6.136  62.005  21.034  0.00  0.00    +0.000 A 
ATOM      7  C   UNL     1       4.277  60.960  22.212  0.00  0.00    +0.000 A 
ATOM      8  N   UNL     1       6.149  58.274  20.638  0.00  0.00    +0.000 N 
ATOM      9  N   UNL     1       4.234  58.460  22.095  0.00  0.00    +0.000 N 
ATOM     10  H   UNL     1       6.751  57.911  19.949  0.00  0.00    +0.000 HD
ATOM     11  H   UNL     1       3.378  58.242  22.529  0.00  0.00    +0.000 HD
ENDROOT
BRANCH   4  16
ATOM     12  N   UNL     1       3.577  56.575  19.883  0.00  0.00    +0.000 N 
ATOM     13  C   UNL     1       2.932  55.307  19.541  0.00  0.00    +0.000 C 
ATOM     14  C   UNL     1       3.406  54.321  20.625  0.00  0.00    +0.000 C 
ATOM     15  C   UNL     1       4.034  55.199  21.729  0.00  0.00    +0.000 C 
ATOM     16  C   UNL     1       4.663  56.300  20.848  0.00  0.00    +0.000 C 
ATOM     17  C   UNL     1       1.428  55.542  19.457  0.00  0.00    +0.000 C 
ATOM     18  C   UNL     1       3.070  55.727  22.793  0.00  0.00    +0.000 C 
ATOM     19  H   UNL     1       2.895  57.206  20.302  0.00  0.00    +0.000 HD
ATOM     20  H   UNL     1       3.956  57.011  19.043  0.00  0.00    +0.000 HD
BRANCH  14  22
ATOM     21  O   UNL     1       1.512  53.369  21.827  0.00  0.00    +0.000 OA
ATOM     22  C   UNL     1       2.409  53.232  20.995  0.00  0.00    +0.000 C 
BRANCH  22  23
ATOM     23  C   UNL     1       2.591  51.884  20.298  0.00  0.00    +0.000 C 
BRANCH  23  24
ATOM     24  O   UNL     1       2.079  51.903  18.976  0.00  0.00    +0.000 OA
ATOM     25  H   UNL     1       2.342  51.092  18.515  0.00  0.00    +0.000 HD
ENDBRANCH  23  24
ENDBRANCH  22  23
ENDBRANCH  14  22
ENDBRANCH   4  16
BRANCH   7  26
ATOM     26  N   UNL     1       3.205  61.014  23.118  0.00  0.00    +0.000 N 
ATOM     27  H   UNL     1       3.249  61.613  23.897  0.00  0.00    +0.000 HD
ATOM     28  H   UNL     1       2.410  60.452  22.973  0.00  0.00    +0.000 HD
ENDBRANCH   7  26
BRANCH   3  29
ATOM     29  S   UNL     1       8.011  60.643  19.492  0.00  0.00    +0.000 S 
BRANCH  29  30
ATOM     30  O   UNL     1       7.444  59.488  18.430  0.00  0.00    +0.000 OA
BRANCH  30  32
ATOM     31  C   UNL     1       8.138  58.320  16.367  0.00  0.00    +0.000 C 
ATOM     32  C   UNL     1       7.769  59.645  17.038  0.00  0.00    +0.000 C 
BRANCH  32  33
ATOM     33  C   UNL     1       8.796  60.774  16.794  0.00  0.00    +0.000 C 
BRANCH  33  34
ATOM     34  N   UNL     1       8.380  61.777  15.808  0.00  0.00    +0.000 N 
ATOM     35  H   UNL     1       7.874  61.319  15.050  0.00  0.00    +0.000 HD
ATOM     36  H   UNL     1       9.204  62.247  15.433  0.00  0.00    +0.000 HD
ATOM     37  H   UNL     1       7.772  62.463  16.257  0.00  0.00    +0.000 HD
ENDBRANCH  33  34
ENDBRANCH  32  33
ENDBRANCH  30  32
ENDBRANCH  29  30
ENDBRANCH   3  29
TORSDOF 10
ENDMDL

MODEL 42
ROOT
ATOM      1  C   UNL     1       0.000   0.000   0.000  0.00  0.00    +0.000 C
ENDROOT
TORSDOF 0
ENDMDL

MODEL 43
REMARK VINA RESULT:      -6.4      0.000      0.000
REMARK  Name = 
REMARK  14 active torsions:
REMARK  status: ('A' for Active; 'I' for Inactive)
REMARK    1  A    between atoms: C_1  and  N_23
REMARK    2  A    between atoms: C_2  and  C_15
REMARK    3  A    between atoms: C_3  and  C_25
REMARK    4  A    between atoms: C_3  and  C_26
REMARK    5  A    between atoms: O_4  and  C_27
REMARK    6  A    between atoms: C_6  and  C_18
REMARK    7  A    between atoms: C_7  and  C_27
REMARK    8  A    between atoms: O_8  and  C_25
REMARK    9  A    between atoms: C_9  and  C_28
REMARK   10  A    between atoms: C_11  and  O_20
REMARK   11  A    between atoms: C_13  and  C_24
REMARK   12  A    between atoms: C_13  and  C_27
REMARK   13  A    between atoms: C_14  and  C_17
REMARK   14  A    between atoms: C_18  and  C_27
REMARK                            x       y       z     vdW  Elec       q    Type
REMARK                         _______ _______ _______ _____ _____    ______ ____
ROOT
ATOM      1  C   UNL     1       3.131  58.248  24.549  0.00  0.00    +0.000 C 
ATOM      2  O   UNL     1       2.078  58.676  24.076  0.00  0.00    +0.000 OA
ATOM      3  N   UNL     1       4.007  57.401  23.899  0.00  0.00    +0.000 N 
ATOM      4  H   UNL     1       4.833  57.181  24.391  0.00  0.00    +0.000 HD
ENDROOT
BRANCH   1   8
ATOM      5  N   UNL     1       4.727  57.867  26.437  0.00  0.00    +0.000 N 
ATOM      6  C   UNL     1       4.291  60.139  26.011  0.00  0.00    +0.000 C 
ATOM      7  C   UNL     1       6.922  58.352  27.318  0.00  0.00    +0.000 C 
ATOM      8  C   UNL     1       3.648  58.744  25.920  0.00  0.00    +0.000 C 
ATOM      9  C   UNL     1       5.428  58.580  27.512  0.00  0.00    +0.000 C 
ATOM     10  C   UNL     1       4.922  60.030  27.415  0.00  0.00    +0.000 C 
ATOM     11  H   UNL     1       5.381  57.646  25.685  0.00  0.00    +0.000 HD
ATOM     12  H   UNL     1       4.331  56.997  26.792  0.00  0.00    +0.000 HD
BRANCH  10  13
ATOM     13  C   UNL     1       5.827  61.173  27.855  0.00  0.00    +0.000 C 
ATOM     14  O   UNL     1       7.034  61.024  28.070  0.00  0.00    +0.000 OA
BRANCH  13  15
ATOM     15  C   UNL     1       5.241  62.579  27.875  0.00  0.00    +0.000 C 
BRANCH  15  16
ATOM     16  O   UNL     1       5.929  63.420  26.961  0.00  0.00    +0.000 OA
ATOM     17  H   UNL     1       6.378  62.875  26.296  0.00  0.00    +0.000 HD
ENDBRANCH  15  16
ENDBRANCH  13  15
ENDBRANCH  10  13
BRANCH   6  19
ATOM     18  C   UNL     1       5.128  61.417  24.005  0.00  0.00    +0.000 C 
ATOM     19  C   UNL     1       5.266  60.416  24.883  0.00  0.00    +0.000 C 
ENDBRANCH   6  19
ENDBRANCH   1   8
BRANCH   3  20
ATOM     20  C   UNL     1       3.878  56.808  22.626  0.00  0.00    +0.000 A 
ATOM     21  C   UNL     1       3.206  55.035  21.085  0.00  0.00    +0.000 A 
ATOM     22  C   UNL     1       4.379  57.544  21.544  0.00  0.00    +0.000 A 
ATOM     23  C   UNL     1       3.718  55.809  20.022  0.00  0.00    +0.000 A 
ATOM     24  C   UNL     1       4.303  57.056  20.246  0.00  0.00    +0.000 A 
ATOM     25  C   UNL     1       3.292  55.562  22.388  0.00  0.00    +0.000 A 
BRANCH  22  26
ATOM     26  O   UNL     1       4.947  58.768  21.798  0.00  0.00    +0.000 OA
ATOM     27  H   UNL     1       5.453  58.897  22.575  0.00  0.00    +0.000 HD
ENDBRANCH  22  26
BRANCH  21  28
ATOM     28  C   UNL     1       2.562  53.672  20.783  0.00  0.00    +0.000 C 
BRANCH  28  29
ATOM     29  O   UNL     1       3.648  52.744  20.580  0.00  0.00    +0.000 OA
ATOM     30  H   UNL     1       4.386  53.200  20.147  0.00  0.00    +0.000 HD
ENDBRANCH  28  29
BRANCH  28  32
ATOM     31  C   UNL     1       2.234  51.774  22.518  0.00  0.00    +0.000 C 
ATOM     32  C   UNL     1       1.718  53.093  21.949  0.00  0.00    +0.000 C 
ENDBRANCH  28  32
BRANCH  28  33
ATOM     33  C   UNL     1       1.785  53.723  19.444  0.00  0.00    +0.000 C 
ATOM     34  C   UNL     1       0.413  54.380  19.516  0.00  0.00    +0.000 C 
ENDBRANCH  28  33
ENDBRANCH  21  28
ENDBRANCH   3  20
TORSDOF 11
ENDMDL

MODEL 44
REMARK VINA RESULT:      -6.3      0.000      0.000
REMARK  Name = 
REMARK  17 active torsions:
REMARK  status: ('A' for Active; 'I' for Inactive)
REMARK    1  A    between atoms: C_1  and  O_14
REMARK    2  A    between atoms: C_1  and  C_27
REMARK    3  A    between atoms: C_3  and  O_7
REMARK    4  A    between atoms: C_3  and  N_20
REMARK    5  A    between atoms: C_3  and  C_22
REMARK    6  A    between atoms: C_3  and  C_24
REMARK    7  A    between atoms: C_4  and  O_18
REMARK    8  A    between atoms: C_8  and  C_23
REMARK    9  A    between atoms: C_10  and  C_15
REMARK   10  A    between atoms: C_10  and  C_24
REMARK   11  A    between atoms: C_11  and  C_21
REMARK   12  A    between atoms: C_11  and  C_24
REMARK   13  A    between atoms: C_12  and  C_27
REMARK   14  A    between atoms: C_13  and  C_17
REMARK   15  A    between atoms: C_16  and  C_28
REMARK   16  A    between atoms: N_25  and  C_26
REMARK   17  A    between atoms: N_25  and  C_28
REMARK                            x       y       z     vdW  Elec       q    Type
REMARK                         _______ _______ _______ _____ _____    ______ ____
ROOT
ATOM      1  C   UNL     1       2.597  54.816  19.358  0.00  0.00    +0.000 A 
ATOM      2  C   UNL     1       3.291  55.696  21.475  0.00  0.00    +0.000 A 
ATOM      3  C   UNL     1       3.951  56.795  19.424  0.00  0.00    +0.000 A 
ATOM      4  C   UNL     1       3.251  55.836  18.688  0.00  0.00    +0.000 A 
ATOM      5  C   UNL     1       3.999  56.740  20.832  0.00  0.00    +0.000 A 
ATOM      6  C   UNL     1       2.616  54.707  20.754  0.00  0.00    +0.000 A 
ENDROOT
BRANCH   1   7
ATOM      7  O   UNL     1       1.921  53.871  18.634  0.00  0.00    +0.000 OA
ATOM      8  H   UNL     1       2.199  53.659  17.765  0.00  0.00    +0.000 HD
ENDBRANCH   1   7
BRANCH   6   9
ATOM      9  N   UNL     1       1.814  53.692  21.335  0.00  0.00    +0.000 N 
ATOM     10  H   UNL     1       0.835  53.679  21.236  0.00  0.00    +0.000 HD
BRANCH   9  11
ATOM     11  C   UNL     1       2.535  52.659  22.094  0.00  0.00    +0.000 C 
BRANCH  11  16
ATOM     12  N   UNL     1       1.737  51.396  20.102  0.00  0.00    +0.000 N 
ATOM     13  C   UNL     1       3.681  50.523  21.164  0.00  0.00    +0.000 C 
ATOM     14  C   UNL     1       3.511  49.932  19.744  0.00  0.00    +0.000 C 
ATOM     15  C   UNL     1       1.760  50.273  17.922  0.00  0.00    +0.000 C 
ATOM     16  C   UNL     1       2.353  51.270  21.436  0.00  0.00    +0.000 C 
ATOM     17  C   UNL     1       2.034  50.140  19.414  0.00  0.00    +0.000 C 
ATOM     18  C   UNL     1       3.994  49.513  22.267  0.00  0.00    +0.000 C 
ATOM     19  H   UNL     1       2.140  52.184  19.597  0.00  0.00    +0.000 HD
ATOM     20  H   UNL     1       0.733  51.566  20.164  0.00  0.00    +0.000 HD
BRANCH  14  22
ATOM     21  O   UNL     1       3.257  47.554  19.548  0.00  0.00    +0.000 OA
ATOM     22  C   UNL     1       4.034  48.515  19.557  0.00  0.00    +0.000 C 
BRANCH  22  23
ATOM     23  C   UNL     1       5.524  48.282  19.338  0.00  0.00    +0.000 C 
BRANCH  23  24
ATOM     24  O   UNL     1       6.183  49.476  18.938  0.00  0.00    +0.000 OA
ATOM     25  H   UNL     1       5.610  50.237  19.123  0.00  0.00    +0.000 HD
ENDBRANCH  23  24
ENDBRANCH  22  23
ENDBRANCH  14  22
ENDBRANCH  11  16
ENDBRANCH   9  11
ENDBRANCH   6   9
BRANCH   5  26
ATOM     26  C   UNL     1       4.753  57.780  21.662  0.00  0.00    +0.000 C 
BRANCH  26  27
ATOM     27  N   UNL     1       5.984  58.140  20.975  0.00  0.00    +0.000 N 
ATOM     28  H   UNL     1       6.602  57.329  20.937  0.00  0.00    +0.000 HD
ATOM     29  H   UNL     1       6.447  58.895  21.479  0.00  0.00    +0.000 HD
ATOM     30  H   UNL     1       5.767  58.447  20.027  0.00  0.00    +0.000 HD
ENDBRANCH  26  27
BRANCH  26  31
ATOM     31  O   UNL     1       5.237  57.199  22.863  0.00  0.00    +0.000 OA
ATOM     32  H   UNL     1       5.583  57.896  23.443  0.00  0.00    +0.000 HD
ENDBRANCH  26  31
BRANCH  26  33
ATOM     33  C   UNL     1       3.942  59.085  22.027  0.00  0.00    +0.000 C 
BRANCH  33  34
ATOM     34  C   UNL     1       3.813  59.353  23.549  0.00  0.00    +0.000 C 
ATOM     35  C   UNL     1       2.376  59.283  24.057  0.00  0.00    +0.000 C 
ENDBRANCH  33  34
BRANCH  33  36
ATOM     36  C   UNL     1       4.354  60.358  21.232  0.00  0.00    +0.000 C 
ATOM     37  C   UNL     1       4.674  61.607  22.043  0.00  0.00    +0.000 C 
ENDBRANCH  33  36
ENDBRANCH  26  33
ENDBRANCH   5  26
TORSDOF 13
ENDMDL

MODEL 45
REMARK VINA RESULT:      -7.2      0.000      0.000
REMARK  Name = 
REMARK  15 active torsions:
REMARK  status: ('A' for Active; 'I' for Inactive)
REMARK    1  A    between atoms: N_1  and  C_7
REMARK    2  A    between atoms: S_2  and  N_9
REMARK    3  A    between atoms: S_2  and  O_23
REMARK    4  A    between atoms: C_5  and  C_24
REMARK    5  A    between atoms: C_6  and  C_18
REMARK    6  A    between atoms: C_8  and  O_20
REMARK    7  A    between atoms: N_9  and  C_16
REMARK    8  A    between atoms: N_9  and  C_18
REMARK    9  A    between atoms: C_10  and  C_27
REMARK   10  A    between atoms: C_11  and  C_22
REMARK   11  A    between atoms: C_14  and  C_26
REMARK   12  A    between atoms: C_15  and  C_24
REMARK   13  A    between atoms: C_16  and  N_19
REMARK   14  A    between atoms: O_23  and  C_25
REMARK   15  A    between atoms: C_28  and  O_29
REMARK                            x       y       z     vdW  Elec       q    Type
REMARK                         _______ _______ _______ _____ _____    ______ ____
ROOT
ATOM      1  N   UNL     1       3.998  58.329  22.181  0.00  0.00    +0.000 N 
ATOM      2  O   UNL     1       5.587  57.274  23.496  0.00  0.00    +0.000 OA
ATOM      3  C   UNL     1       4.517  57.270  22.902  0.00  0.00    +0.000 C 
ATOM      4  H   UNL     1       3.119  58.168  21.770  0.00  0.00    +0.000 HD
ENDROOT
BRANCH   3   8
ATOM      5  N   UNL     1       2.949  55.881  24.092  0.00  0.00    +0.000 NA
ATOM      6  C   UNL     1       3.429  55.209  21.798  0.00  0.00    +0.000 A 
ATOM      7  C   UNL     1       2.115  54.823  24.238  0.00  0.00    +0.000 A 
ATOM      8  C   UNL     1       3.598  56.060  22.893  0.00  0.00    +0.000 A 
ATOM      9  C   UNL     1       1.900  53.908  23.212  0.00  0.00    +0.000 A 
ATOM     10  C   UNL     1       1.455  54.712  25.581  0.00  0.00    +0.000 C 
ATOM     11  C   UNL     1       2.569  54.115  21.996  0.00  0.00    +0.000 A 
BRANCH   9  12
ATOM     12  C   UNL     1       0.996  52.754  23.398  0.00  0.00    +0.000 C 
ATOM     13  N   UNL     1      -0.004  52.539  22.598  0.00  0.00    +0.000 NA
ATOM     14  H   UNL     1      -0.175  53.152  21.847  0.00  0.00    +0.000 HD
ENDBRANCH   9  12
BRANCH   6  16
ATOM     15  C   UNL     1       3.269  56.160  19.475  0.00  0.00    +0.000 C 
ATOM     16  C   UNL     1       4.123  55.390  20.472  0.00  0.00    +0.000 C 
ENDBRANCH   6  16
BRANCH  11  17
ATOM     17  O   UNL     1       2.407  53.239  20.946  0.00  0.00    +0.000 OA
ATOM     18  H   UNL     1       3.010  52.532  20.828  0.00  0.00    +0.000 HD
ENDBRANCH  11  17
ENDBRANCH   3   8
BRANCH   1  20
ATOM     19  C   UNL     1       5.539  62.209  21.661  0.00  0.00    +0.000 A 
ATOM     20  C   UNL     1       4.545  59.604  21.953  0.00  0.00    +0.000 A 
ATOM     21  C   UNL     1       4.155  60.629  22.831  0.00  0.00    +0.000 A 
ATOM     22  C   UNL     1       5.438  59.899  20.922  0.00  0.00    +0.000 A 
ATOM     23  C   UNL     1       4.649  61.925  22.695  0.00  0.00    +0.000 A 
ATOM     24  C   UNL     1       5.915  61.207  20.763  0.00  0.00    +0.000 A 
BRANCH  21  25
ATOM     25  O   UNL     1       3.275  60.327  23.839  0.00  0.00    +0.000 OA
ATOM     26  H   UNL     1       3.506  60.501  24.731  0.00  0.00    +0.000 HD
ENDBRANCH  21  25
BRANCH  24  27
ATOM     27  O   UNL     1       6.816  61.572  19.789  0.00  0.00    +0.000 OA
BRANCH  27  28
ATOM     28  S   UNL     1       7.750  60.360  19.130  0.00  0.00    +0.000 S 
BRANCH  28  29
ATOM     29  N   UNL     1       7.857  60.913  17.557  0.00  0.00    +0.000 NA
BRANCH  29  31
ATOM     30  C   UNL     1       7.950  58.526  16.737  0.00  0.00    +0.000 C 
ATOM     31  C   UNL     1       7.608  59.984  16.443  0.00  0.00    +0.000 C 
ENDBRANCH  29  31
BRANCH  29  32
ATOM     32  C   UNL     1       8.777  61.976  17.167  0.00  0.00    +0.000 C 
BRANCH  32  33
ATOM     33  N   UNL     1       9.075  61.846  15.753  0.00  0.00    +0.000 N 
ATOM     34  H   UNL     1       9.206  62.772  15.347  0.00  0.00    +0.000 HD
ATOM     35  H   UNL     1       8.303  61.374  15.283  0.00  0.00    +0.000 HD
ATOM     36  H   UNL     1       9.930  61.299  15.635  0.00  0.00    +0.000 HD
ENDBRANCH  32  33
ENDBRANCH  29  32
ENDBRANCH  28  29
ENDBRANCH  27  28
ENDBRANCH  24  27
ENDBRANCH   1  20
TORSDOF 12
ENDMDL

MODEL 46
ROOT
ATOM      1  C   UNL     1       0.000   0.000   0.000  0.00  0.00    +0.000 C
ENDROOT
TORSDOF 0
ENDMDL

MODEL 47
REMARK VINA RESULT:      -7.5      0.000      0.000
REMARK  Name = 
REMARK  17 active torsions:
REMARK  status: ('A' for Active; 'I' for Inactive)
REMARK    1  A    between atoms: C_1  and  C_24
REMARK    2  A    between atoms: C_2  and  O_13
REMARK    3  A    between atoms: C_2  and  C_20
REMARK    4  A    between atoms: C_3  and  N_19
REMARK    5  A    between atoms: C_4  and  N_22
REMARK    6  A    between atoms: C_4  and  C_26
REMARK    7  A    between atoms: S_6  and  O_16
REMARK    8  A    between atoms: S_6  and  N_22
REMARK    9  A    between atoms: S_6  and  O_23
REMARK   10  A    between atoms: C_8  and  C_14
REMARK   11  A    between atoms: C_9  and  C_14
REMARK   12  A    between atoms: C_9  and  O_18
REMARK   13  A    between atoms: C_11  and  C_20
REMARK   14  A    between atoms: C_11  and  C_25
REMARK   15  A    between atoms: C_12  and  C_15
REMARK   16  A    between atoms: C_15  and  N_22
REMARK   17  A    between atoms: C_17  and  C_26
REMARK                            x       y       z     vdW  Elec       q    Type
REMARK                         _______ _______ _______ _____ _____    ______ ____
ROOT
ATOM      1  C   UNL     1       5.737  61.733  21.040  0.00  0.00    +0.000 C 
ATOM      2  N   UNL     1       4.559  61.042  20.990  0.00  0.00    +0.000 N 
ATOM      3  N   UNL     1       6.188  62.216  22.163  0.00  0.00    +0.000 N 
ATOM      4  H   UNL     1       4.081  61.013  20.129  0.00  0.00    +0.000 HD
ATOM      5  H   UNL     1       5.695  62.058  23.000  0.00  0.00    +0.000 HD
ATOM      6  H   UNL     1       7.021  62.739  22.174  0.00  0.00    +0.000 HD
ENDROOT
BRANCH   2   7
ATOM      7  C   UNL     1       3.967  60.357  22.103  0.00  0.00    +0.000 C 
ATOM      8  C   UNL     1       5.095  58.798  23.411  0.00  0.00    +0.000 C 
ATOM      9  C   UNL     1       3.493  58.970  21.731  0.00  0.00    +0.000 C 
ATOM     10  O   UNL     1       4.968  60.199  23.115  0.00  0.00    +0.000 OA
ATOM     11  C   UNL     1       3.814  58.131  22.935  0.00  0.00    +0.000 C 
BRANCH  11  12
ATOM     12  C   UNL     1       3.972  56.632  22.668  0.00  0.00    +0.000 C 
BRANCH  12  13
ATOM     13  C   UNL     1       4.462  56.246  21.255  0.00  0.00    +0.000 C 
BRANCH  13  14
ATOM     14  N   UNL     1       3.491  55.613  20.353  0.00  0.00    +0.000 NA
BRANCH  14  15
ATOM     15  S   UNL     1       3.174  56.240  18.824  0.00  0.00    +0.000 S 
ATOM     16  H   UNL     1       2.936  57.576  18.912  0.00  0.00    +0.000 HD
BRANCH  15  17
ATOM     17  O   UNL     1       1.963  55.387  18.205  0.00  0.00    +0.000 OA
ATOM     18  H   UNL     1       1.131  55.870  18.328  0.00  0.00    +0.000 HD
ENDBRANCH  15  17
BRANCH  15  19
ATOM     19  O   UNL     1       4.410  55.866  17.862  0.00  0.00    +0.000 OA
ATOM     20  H   UNL     1       5.217  55.777  18.394  0.00  0.00    +0.000 HD
ENDBRANCH  15  19
ENDBRANCH  14  15
BRANCH  14  22
ATOM     21  C   UNL     1       1.785  54.122  21.398  0.00  0.00    +0.000 C 
ATOM     22  C   UNL     1       3.154  54.243  20.738  0.00  0.00    +0.000 C 
ENDBRANCH  14  22
ENDBRANCH  13  14
ENDBRANCH  12  13
ENDBRANCH  11  12
ENDBRANCH   2   7
BRANCH   1  24
ATOM     23  C   UNL     1       7.485  61.205  19.303  0.00  0.00    +0.000 C 
ATOM     24  C   UNL     1       6.516  61.999  19.799  0.00  0.00    +0.000 C 
BRANCH  23  25
ATOM     25  C   UNL     1       8.161  61.605  18.073  0.00  0.00    +0.000 C 
ATOM     26  C   UNL     1       8.477  60.788  17.049  0.00  0.00    +0.000 C 
BRANCH  26  28
ATOM     27  C   UNL     1       7.195  58.929  15.928  0.00  0.00    +0.000 C 
ATOM     28  C   UNL     1       8.220  59.300  16.993  0.00  0.00    +0.000 C 
ENDBRANCH  26  28
BRANCH  25  29
ATOM     29  O   UNL     1       8.441  62.957  17.991  0.00  0.00    +0.000 OA
ATOM     30  H   UNL     1       8.862  63.303  17.229  0.00  0.00    +0.000 HD
ENDBRANCH  25  29
BRANCH  26  31
ATOM     31  O   UNL     1       9.072  61.332  15.915  0.00  0.00    +0.000 OA
ATOM     32  H   UNL     1       9.564  60.785  15.336  0.00  0.00    +0.000 HD
ENDBRANCH  26  31
ENDBRANCH  23  25
BRANCH  23  33
ATOM     33  C   UNL     1       8.035  59.958  19.965  0.00  0.00    +0.000 C 
ATOM     34  C   UNL     1       7.001  58.847  20.102  0.00  0.00    +0.000 C 
ENDBRANCH  23  33
ENDBRANCH   1  24
TORSDOF 14
ENDMDL

MODEL 48
REMARK VINA RESULT:      -7.1      0.000      0.000
REMARK  Name = 
REMARK  15 active torsions:
REMARK  status: ('A' for Active; 'I' for Inactive)
REMARK    1  A    between atoms: C_2  and  C_21
REMARK    2  A    between atoms: O_4  and  C_14
REMARK    3  A    between atoms: C_5  and  C_14
REMARK    4  A    between atoms: C_5  and  C_22
REMARK    5  A    between atoms: S_6  and  N_18
REMARK    6  A    between atoms: S_6  and  O_19
REMARK    7  A    between atoms: C_8  and  C_13
REMARK    8  A    between atoms: C_10  and  C_15
REMARK    9  A    between atoms: C_11  and  C_12
REMARK   10  A    between atoms: C_12  and  C_26
REMARK   11  A    between atoms: C_13  and  C_25
REMARK   12  A    between atoms: C_15  and  N_18
REMARK   13  A    between atoms: C_16  and  N_18
REMARK   14  A    between atoms: O_19  and  C_23
REMARK   15  A    between atoms: C_24  and  C_26
REMARK                            x       y       z     vdW  Elec       q    Type
REMARK                         _______ _______ _______ _____ _____    ______ ____
ROOT
ATOM      1  O   UNL     1       3.649  59.377  23.313  0.00  0.00    +0.000 OA
ATOM      2  C   UNL     1       4.412  58.854  22.493  0.00  0.00    +0.000 C 
ENDROOT
BRANCH   2   4
ATOM      3  C   UNL     1       4.802  61.920  21.065  0.00  0.00    +0.000 C 
ATOM      4  C   UNL     1       4.716  59.520  21.132  0.00  0.00    +0.000 C 
ATOM      5  N   UNL     1       3.901  60.760  20.999  0.00  0.00    +0.000 N 
ATOM      6  C   UNL     1       4.952  62.433  22.498  0.00  0.00    +0.000 C 
ATOM      7  C   UNL     1       6.076  61.380  20.407  0.00  0.00    +0.000 C 
ATOM      8  C   UNL     1       6.182  59.962  20.993  0.00  0.00    +0.000 C 
ATOM      9  H   UNL     1       3.410  60.755  20.106  0.00  0.00    +0.000 HD
ATOM     10  H   UNL     1       3.213  60.809  21.752  0.00  0.00    +0.000 HD
BRANCH   8  12
ATOM     11  C   UNL     1       7.601  59.506  18.861  0.00  0.00    +0.000 C 
ATOM     12  C   UNL     1       7.082  58.999  20.199  0.00  0.00    +0.000 C 
ENDBRANCH   8  12
BRANCH   7  13
ATOM     13  C   UNL     1       7.344  62.219  20.591  0.00  0.00    +0.000 C 
BRANCH  13  14
ATOM     14  C   UNL     1       7.386  63.435  19.672  0.00  0.00    +0.000 C 
BRANCH  14  15
ATOM     15  O   UNL     1       8.073  63.100  18.473  0.00  0.00    +0.000 OA
ATOM     16  H   UNL     1       9.027  63.066  18.645  0.00  0.00    +0.000 HD
ENDBRANCH  14  15
ENDBRANCH  13  14
ENDBRANCH   7  13
ENDBRANCH   2   4
BRANCH   2  17
ATOM     17  C   UNL     1       5.086  57.529  22.807  0.00  0.00    +0.000 C 
BRANCH  17  23
ATOM     18  C   UNL     1       4.284  55.486  21.549  0.00  0.00    +0.000 A 
ATOM     19  C   UNL     1       2.508  54.094  22.412  0.00  0.00    +0.000 A 
ATOM     20  C   UNL     1       3.191  56.070  23.623  0.00  0.00    +0.000 A 
ATOM     21  C   UNL     1       2.361  54.957  23.498  0.00  0.00    +0.000 A 
ATOM     22  C   UNL     1       3.481  54.346  21.444  0.00  0.00    +0.000 A 
ATOM     23  C   UNL     1       4.175  56.335  22.661  0.00  0.00    +0.000 A 
BRANCH  22  24
ATOM     24  O   UNL     1       3.549  53.440  20.412  0.00  0.00    +0.000 OA
BRANCH  24  25
ATOM     25  S   UNL     1       2.353  52.286  20.309  0.00  0.00    +0.000 S 
BRANCH  25  27
ATOM     26  C   UNL     1       0.877  51.729  18.125  0.00  0.00    +0.000 C 
ATOM     27  N   UNL     1       1.751  52.686  18.805  0.00  0.00    +0.000 NA
BRANCH  27  29
ATOM     28  C   UNL     1       0.295  54.635  19.478  0.00  0.00    +0.000 C 
ATOM     29  C   UNL     1       1.347  54.074  18.527  0.00  0.00    +0.000 C 
ENDBRANCH  27  29
ENDBRANCH  25  27
ENDBRANCH  24  25
ENDBRANCH  22  24
ENDBRANCH  17  23
ENDBRANCH   2  17
TORSDOF 11
ENDMDL

MODEL 49
REMARK VINA RESULT:      -7.2      0.000      0.000
REMARK  Name = 
REMARK  14 active torsions:
REMARK  status: ('A' for Active; 'I' for Inactive)
REMARK    1  A    between atoms: O_1  and  C_29
REMARK    2  A    between atoms: C_2  and  N_21
REMARK    3  A    between atoms: C_5  and  C_20
REMARK    4  A    between atoms: C_6  and  C_15
REMARK    5  A    between atoms: C_7  and  O_11
REMARK    6  A    between atoms: N_8  and  C_16
REMARK    7  A    between atoms: N_8  and  C_20
REMARK    8  A    between atoms: C_10  and  O_26
REMARK    9  A    between atoms: C_12  and  C_27
REMARK   10  A    between atoms: N_13  and  C_23
REMARK   11  A    between atoms: C_15  and  C_22
REMARK   12  A    between atoms: C_16  and  C_17
REMARK   13  A    between atoms: C_16  and  C_19
REMARK   14  A    between atoms: C_18  and  C_28
REMARK                            x       y       z     vdW  Elec       q    Type
REMARK                         _______ _______ _______ _____ _____    ______ ____
ROOT
ATOM      1  O   UNL     1       3.091  56.598  24.847  0.00  0.00    +0.000 OA
ATOM      2  N   UNL     1       5.072  57.649  24.223  0.00  0.00    +0.000 N 
ATOM      3  C   UNL     1       4.013  56.777  24.058  0.00  0.00    +0.000 C 
ATOM      4  H   UNL     1       5.753  57.604  23.513  0.00  0.00    +0.000 HD
ENDROOT
BRANCH   3  10
ATOM      5  N   UNL     1       2.863  55.303  22.384  0.00  0.00    +0.000 N 
ATOM      6  C   UNL     1       4.510  56.681  21.451  0.00  0.00    +0.000 C 
ATOM      7  C   UNL     1       2.477  54.945  18.785  0.00  0.00    +0.000 C 
ATOM      8  C   UNL     1       3.549  53.235  21.229  0.00  0.00    +0.000 C 
ATOM      9  C   UNL     1       4.176  55.579  20.402  0.00  0.00    +0.000 C 
ATOM     10  C   UNL     1       4.138  55.950  22.756  0.00  0.00    +0.000 C 
ATOM     11  C   UNL     1       1.861  54.787  20.167  0.00  0.00    +0.000 C 
ATOM     12  C   UNL     1       3.091  54.694  21.078  0.00  0.00    +0.000 C 
ATOM     13  C   UNL     1       3.586  55.975  19.042  0.00  0.00    +0.000 C 
ATOM     14  H   UNL     1       2.117  55.996  22.327  0.00  0.00    +0.000 HD
ATOM     15  H   UNL     1       2.580  54.609  23.076  0.00  0.00    +0.000 HD
BRANCH  13  16
ATOM     16  O   UNL     1       4.565  55.941  18.007  0.00  0.00    +0.000 OA
ATOM     17  H   UNL     1       5.401  55.603  18.363  0.00  0.00    +0.000 HD
ENDBRANCH  13  16
BRANCH   6  18
ATOM     18  C   UNL     1       3.775  58.027  21.276  0.00  0.00    +0.000 C 
ATOM     19  C   UNL     1       4.730  59.171  20.949  0.00  0.00    +0.000 C 
ENDBRANCH   6  18
BRANCH   7  20
ATOM     20  O   UNL     1       1.530  55.409  17.838  0.00  0.00    +0.000 OA
ATOM     21  H   UNL     1       1.460  56.375  17.898  0.00  0.00    +0.000 HD
ENDBRANCH   7  20
ENDBRANCH   3  10
BRANCH   2  26
ATOM     22  C   UNL     1       6.202  58.051  26.245  0.00  0.00    +0.000 A 
ATOM     23  C   UNL     1       5.327  60.655  26.497  0.00  0.00    +0.000 A 
ATOM     24  C   UNL     1       6.594  58.803  27.352  0.00  0.00    +0.000 A 
ATOM     25  C   UNL     1       4.874  59.923  25.370  0.00  0.00    +0.000 A 
ATOM     26  C   UNL     1       5.344  58.599  25.243  0.00  0.00    +0.000 A 
ATOM     27  C   UNL     1       6.180  60.120  27.460  0.00  0.00    +0.000 A 
BRANCH  22  28
ATOM     28  N   UNL     1       6.481  56.647  26.222  0.00  0.00    +0.000 N 
ATOM     29  H   UNL     1       6.803  56.222  25.395  0.00  0.00    +0.000 HD
ATOM     30  H   UNL     1       6.349  56.107  27.035  0.00  0.00    +0.000 HD
ENDBRANCH  22  28
BRANCH  23  31
ATOM     31  O   UNL     1       4.902  61.937  26.749  0.00  0.00    +0.000 OA
ATOM     32  H   UNL     1       5.283  62.428  27.449  0.00  0.00    +0.000 HD
ENDBRANCH  23  31
BRANCH  25  33
ATOM     33  C   UNL     1       3.899  60.586  24.401  0.00  0.00    +0.000 C 
ATOM     34  C   UNL     1       4.658  61.585  23.515  0.00  0.00    +0.000 C 
BRANCH  33  35
ATOM     35  N   UNL     1       2.804  61.261  25.163  0.00  0.00    +0.000 N 
ATOM     36  H   UNL     1       2.402  61.994  24.579  0.00  0.00    +0.000 HD
ATOM     37  H   UNL     1       3.208  61.644  26.017  0.00  0.00    +0.000 HD
BRANCH  35  39
ATOM     38  C   UNL     1       1.414  59.414  24.378  0.00  0.00    +0.000 C 
ATOM     39  C   UNL     1       1.739  60.329  25.551  0.00  0.00    +0.000 C 
ENDBRANCH  35  39
ENDBRANCH  33  35
ENDBRANCH  25  33
ENDBRANCH   2  26
TORSDOF 10
ENDMDL

MODEL 50
REMARK VINA RESULT:      -7.0      0.000      0.000
REMARK  Name = 
REMARK  13 active torsions:
REMARK  status: ('A' for Active; 'I' for Inactive)
REMARK    1  A    between atoms: C_1  and  S_5
REMARK    2  A    between atoms: C_3  and  C_18
REMARK    3  A    between atoms: S_5  and  O_20
REMARK    4  A    between atoms: C_7  and  C_15
REMARK    5  A    between atoms: C_7  and  O_21
REMARK    6  A    between atoms: C_8  and  C_12
REMARK    7  A    between atoms: C_9  and  C_12
REMARK    8  A    between atoms: C_10  and  C_26
REMARK    9  A    between atoms: C_11  and  C_19
REMARK   10  A    between atoms: C_11  and  C_23
REMARK   11  A    between atoms: C_16  and  C_23
REMARK   12  A    between atoms: C_17  and  C_24
REMARK   13  A    between atoms: O_20  and  C_23
REMARK                            x       y       z     vdW  Elec       q    Type
REMARK                         _______ _______ _______ _____ _____    ______ ____
ROOT
ATOM      1  C   UNL     1       4.884  57.620  21.946  0.00  0.00    +0.000 A 
ATOM      2  C   UNL     1       2.591  54.339  20.812  0.00  0.00    +0.000 A 
ATOM      3  C   UNL     1       4.160  57.263  24.221  0.00  0.00    +0.000 A 
ATOM      4  N   UNL     1       3.287  54.955  19.843  0.00  0.00    +0.000 NA
ATOM      5  C   UNL     1       3.389  56.166  23.807  0.00  0.00    +0.000 A 
ATOM      6  N   UNL     1       2.613  54.713  22.108  0.00  0.00    +0.000 NA
ATOM      7  C   UNL     1       4.904  57.984  23.296  0.00  0.00    +0.000 A 
ATOM      8  C   UNL     1       4.023  56.017  20.225  0.00  0.00    +0.000 A 
ATOM      9  C   UNL     1       2.590  55.401  24.831  0.00  0.00    +0.000 C 
ATOM     10  C   UNL     1       3.358  55.773  22.463  0.00  0.00    +0.000 A 
ATOM     11  C   UNL     1       4.111  56.501  21.530  0.00  0.00    +0.000 A 
ENDROOT
BRANCH   2  16
ATOM     12  N   UNL     1       0.750  53.413  19.338  0.00  0.00    +0.000 N 
ATOM     13  C   UNL     1       2.536  51.912  20.011  0.00  0.00    +0.000 C 
ATOM     14  C   UNL     1       1.545  51.128  19.133  0.00  0.00    +0.000 C 
ATOM     15  C   UNL     1      -0.433  51.985  17.668  0.00  0.00    +0.000 C 
ATOM     16  C   UNL     1       1.721  53.140  20.449  0.00  0.00    +0.000 C 
ATOM     17  C   UNL     1       0.880  52.299  18.376  0.00  0.00    +0.000 C 
ATOM     18  H   UNL     1       0.974  54.298  18.884  0.00  0.00    +0.000 HD
ATOM     19  H   UNL     1      -0.204  53.479  19.694  0.00  0.00    +0.000 HD
BRANCH  14  20
ATOM     20  C   UNL     1       0.594  50.195  19.862  0.00  0.00    +0.000 C 
ATOM     21  C   UNL     1       0.558  48.875  19.638  0.00  0.00    +0.000 C 
BRANCH  20  22
ATOM     22  O   UNL     1      -0.258  50.783  20.774  0.00  0.00    +0.000 OA
ATOM     23  H   UNL     1      -0.279  50.478  21.660  0.00  0.00    +0.000 HD
ENDBRANCH  20  22
ENDBRANCH  14  20
BRANCH  13  25
ATOM     24  C   UNL     1       4.430  50.224  20.662  0.00  0.00    +0.000 C 
ATOM     25  C   UNL     1       3.296  51.139  21.101  0.00  0.00    +0.000 C 
ENDBRANCH  13  25
ENDBRANCH   2  16
BRANCH   1  26
ATOM     26  S   UNL     1       5.872  58.626  20.835  0.00  0.00    +0.000 S 
BRANCH  26  27
ATOM     27  O   UNL     1       5.786  60.070  21.664  0.00  0.00    +0.000 OA
BRANCH  27  29
ATOM     28  C   UNL     1       7.043  61.583  20.294  0.00  0.00    +0.000 C 
ATOM     29  C   UNL     1       5.664  61.246  20.856  0.00  0.00    +0.000 C 
BRANCH  29  30
ATOM     30  C   UNL     1       5.159  62.393  21.742  0.00  0.00    +0.000 C 
ATOM     31  C   UNL     1       4.676  61.905  23.102  0.00  0.00    +0.000 C 
ENDBRANCH  29  30
ENDBRANCH  27  29
ENDBRANCH  26  27
ENDBRANCH   1  26
TORSDOF 8
ENDMDL

MODEL 51
REMARK VINA RESULT:      -6.7      0.000      0.000
REMARK  Name = 
REMARK  13 active torsions:
REMARK  status: ('A' for Active; 'I' for Inactive)
REMARK    1  A    between atoms: N_2  and  C_9
REMARK    2  A    between atoms: C_3  and  C_20
REMARK    3  A    between atoms: C_4  and  C_5
REMARK    4  A    between atoms: C_5  and  C_15
REMARK    5  A    between atoms: C_7  and  C_16
REMARK    6  A    between atoms: C_8  and  C_16
REMARK    7  A    between atoms: C_8  and  C_26
REMARK    8  A    between atoms: C_10  and  O_18
REMARK    9  A    between atoms: C_11  and  C_24
REMARK   10  A    between atoms: O_12  and  C_24
REMARK   11  A    between atoms: O_13  and  C_19
REMARK   12  A    between atoms: C_14  and  C_17
REMARK   13  A    between atoms: C_16  and  O_18
REMARK                            x       y       z     vdW  Elec       q    Type
REMARK                         _______ _______ _______ _____ _____    ______ ____
ROOT
ATOM      1  N   UNL     1       5.330  59.853  22.000  0.00  0.00    +0.000 N 
ATOM      2  C   UNL     1       4.966  58.521  21.962  0.00  0.00    +0.000 C 
ATOM      3  O   UNL     1       5.334  57.678  21.152  0.00  0.00    +0.000 OA
ATOM      4  H   UNL     1       4.974  60.372  22.758  0.00  0.00    +0.000 HD
ENDROOT
BRANCH   2   8
ATOM      5  C   UNL     1       2.831  59.435  24.745  0.00  0.00    +0.000 C 
ATOM      6  C   UNL     1       4.799  58.120  24.474  0.00  0.00    +0.000 C 
ATOM      7  N   UNL     1       2.966  59.158  23.301  0.00  0.00    +0.000 N 
ATOM      8  C   UNL     1       4.046  58.137  23.138  0.00  0.00    +0.000 C 
ATOM      9  C   UNL     1       1.374  59.533  25.182  0.00  0.00    +0.000 C 
ATOM     10  C   UNL     1       3.690  58.398  25.496  0.00  0.00    +0.000 C 
ATOM     11  H   UNL     1       3.217  60.013  22.805  0.00  0.00    +0.000 HD
ATOM     12  H   UNL     1       2.086  58.814  22.918  0.00  0.00    +0.000 HD
BRANCH   6  13
ATOM     13  C   UNL     1       5.615  56.832  24.674  0.00  0.00    +0.000 C 
ATOM     14  C   UNL     1       6.650  56.931  25.785  0.00  0.00    +0.000 C 
ENDBRANCH   6  13
BRANCH  10  15
ATOM     15  C   UNL     1       2.887  57.147  25.861  0.00  0.00    +0.000 C 
ATOM     16  O   UNL     1       2.880  56.682  26.998  0.00  0.00    +0.000 OA
ENDBRANCH  10  15
BRANCH  10  17
ATOM     17  O   UNL     1       4.246  58.989  26.668  0.00  0.00    +0.000 OA
ATOM     18  H   UNL     1       5.148  59.293  26.481  0.00  0.00    +0.000 HD
ENDBRANCH  10  17
ENDBRANCH   2   8
BRANCH   1  20
ATOM     19  C   UNL     1       6.897  62.753  20.317  0.00  0.00    +0.000 A 
ATOM     20  C   UNL     1       6.144  60.567  21.100  0.00  0.00    +0.000 A 
ATOM     21  C   UNL     1       7.613  60.750  19.185  0.00  0.00    +0.000 A 
ATOM     22  C   UNL     1       6.174  61.967  21.208  0.00  0.00    +0.000 A 
ATOM     23  C   UNL     1       6.904  59.963  20.099  0.00  0.00    +0.000 A 
ATOM     24  C   UNL     1       7.631  62.138  19.306  0.00  0.00    +0.000 A 
BRANCH  22  25
ATOM     25  O   UNL     1       5.526  62.615  22.226  0.00  0.00    +0.000 OA
ATOM     26  H   UNL     1       5.392  62.183  23.046  0.00  0.00    +0.000 HD
ENDBRANCH  22  25
BRANCH  21  27
ATOM     27  O   UNL     1       8.397  60.162  18.232  0.00  0.00    +0.000 OA
BRANCH  27  29
ATOM     28  C   UNL     1       8.275  58.391  16.496  0.00  0.00    +0.000 C 
ATOM     29  C   UNL     1       7.718  59.709  17.039  0.00  0.00    +0.000 C 
BRANCH  29  30
ATOM     30  C   UNL     1       7.593  60.813  15.976  0.00  0.00    +0.000 C 
ATOM     31  C   UNL     1       8.793  61.749  15.931  0.00  0.00    +0.000 C 
ENDBRANCH  29  30
ENDBRANCH  27  29
ENDBRANCH  21  27
ENDBRANCH   1  20
TORSDOF 9
ENDMDL

MODEL 52
REMARK VINA RESULT:      -6.1      0.000      0.000
REMARK  Name = 
REMARK  16 active torsions:
REMARK  status: ('A' for Active; 'I' for Inactive)
REMARK    1  A    between atoms: C_1  and  O_14
REMARK    2  A    between atoms: C_1  and  C_16
REMARK    3  A    between atoms: C_1  and  C_23
REMARK    4  A    between atoms: C_2  and  C_18
REMARK    5  A    between atoms: C_3  and  N_15
REMARK    6  A    between atoms: O_5  and  C_13
REMARK    7  A    between atoms: S_6  and  C_27
REMARK    8  A    between atoms: C_8  and  C_17
REMARK    9  A    between atoms: O_9  and  C_26
REMARK   10  A    between atoms: C_11  and  C_22
REMARK   11  A    between atoms: C_12  and  C_22
REMARK   12  A    between atoms: C_13  and  C_26
REMARK   13  A    between atoms: C_18  and  C_27
REMARK   14  A    between atoms: C_21  and  C_25
REMARK   15  A    between atoms: C_21  and  C_27
REMARK   16  A    between atoms: C_24  and  C_27
REMARK                            x       y       z     vdW  Elec       q    Type
REMARK                         _______ _______ _______ _____ _____    ______ ____
ROOT
ATOM      1  C   UNL     1       4.507  56.924  23.659  0.00  0.00    +0.000 C 
ENDROOT
BRANCH   1   5
ATOM      2  N   UNL     1       3.050  58.994  24.160  0.00  0.00    +0.000 N 
ATOM      3  C   UNL     1       2.191  60.549  25.799  0.00  0.00    +0.000 C 
ATOM      4  C   UNL     1       5.270  59.119  25.039  0.00  0.00    +0.000 C 
ATOM      5  C   UNL     1       4.408  58.461  23.928  0.00  0.00    +0.000 C 
ATOM      6  C   UNL     1       3.180  60.376  24.652  0.00  0.00    +0.000 C 
ATOM      7  C   UNL     1       4.685  60.562  25.002  0.00  0.00    +0.000 C 
ATOM      8  H   UNL     1       2.568  58.424  24.854  0.00  0.00    +0.000 HD
ATOM      9  H   UNL     1       2.510  58.976  23.294  0.00  0.00    +0.000 HD
BRANCH   7  10
ATOM     10  O   UNL     1       5.342  61.236  23.881  0.00  0.00    +0.000 OA
ATOM     11  H   UNL     1       6.262  60.934  23.818  0.00  0.00    +0.000 HD
ENDBRANCH   7  10
BRANCH   4  13
ATOM     12  C   UNL     1       6.556  58.111  27.043  0.00  0.00    +0.000 C 
ATOM     13  C   UNL     1       5.204  58.398  26.400  0.00  0.00    +0.000 C 
ENDBRANCH   4  13
BRANCH   7  14
ATOM     14  C   UNL     1       4.957  61.492  26.186  0.00  0.00    +0.000 C 
BRANCH  14  15
ATOM     15  O   UNL     1       4.786  62.853  25.786  0.00  0.00    +0.000 OA
ATOM     16  H   UNL     1       4.930  62.929  24.829  0.00  0.00    +0.000 HD
ENDBRANCH  14  15
ENDBRANCH   7  14
ENDBRANCH   1   5
BRANCH   1  21
ATOM     17  C   UNL     1       4.629  56.830  21.095  0.00  0.00    +0.000 A 
ATOM     18  C   UNL     1       3.146  55.322  19.877  0.00  0.00    +0.000 A 
ATOM     19  C   UNL     1       3.115  55.336  22.263  0.00  0.00    +0.000 A 
ATOM     20  C   UNL     1       4.101  56.340  19.895  0.00  0.00    +0.000 A 
ATOM     21  C   UNL     1       4.103  56.349  22.309  0.00  0.00    +0.000 A 
ATOM     22  C   UNL     1       2.629  54.785  21.064  0.00  0.00    +0.000 A 
BRANCH  17  23
ATOM     23  N   UNL     1       5.518  57.914  21.028  0.00  0.00    +0.000 N 
ATOM     24  H   UNL     1       5.194  58.799  20.745  0.00  0.00    +0.000 HD
ATOM     25  H   UNL     1       6.466  57.789  21.263  0.00  0.00    +0.000 HD
ENDBRANCH  17  23
BRANCH  22  26
ATOM     26  C   UNL     1       1.582  53.647  21.027  0.00  0.00    +0.000 C 
BRANCH  26  27
ATOM     27  S   UNL     1       2.495  52.059  20.508  0.00  0.00    +0.000 S 
ATOM     28  O   UNL     1       3.972  52.289  20.649  0.00  0.00    +0.000 OA
ATOM     29  H   UNL     1       2.113  51.028  21.310  0.00  0.00    +0.000 HD
ENDBRANCH  26  27
BRANCH  26  31
ATOM     30  C   UNL     1       0.508  52.963  18.770  0.00  0.00    +0.000 C 
ATOM     31  C   UNL     1       0.474  53.911  19.966  0.00  0.00    +0.000 C 
ENDBRANCH  26  31
BRANCH  26  32
ATOM     32  C   UNL     1       0.966  53.328  22.431  0.00  0.00    +0.000 C 
ATOM     33  C   UNL     1       1.529  52.115  23.171  0.00  0.00    +0.000 C 
ENDBRANCH  26  32
ENDBRANCH  22  26
ENDBRANCH   1  21
BRANCH   1  34
ATOM     34  O   UNL     1       5.882  56.542  23.893  0.00  0.00    +0.000 OA
ATOM     35  H   UNL     1       6.075  56.598  24.841  0.00  0.00    +0.000 HD
ENDBRANCH   1  34
TORSDOF 12
ENDMDL

MODEL 53
ROOT
ATOM      1  C   UNL     1       0.000   0.000   0.000  0.00  0.00    +0.000 C
ENDROOT
TORSDOF 0
ENDMDL

MODEL 54
REMARK VINA RESULT:      -7.0      0.000      0.000
REMARK  Name = 
REMARK  11 active torsions:
REMARK  status: ('A' for Active; 'I' for Inactive)
REMARK    1  A    between atoms: S_3  and  N_22
REMARK    2  A    between atoms: S_3  and  O_28
REMARK    3  A    between atoms: C_4  and  C_10
REMARK    4  A    between atoms: C_8  and  C_14
REMARK    5  A    between atoms: C_8  and  C_30
REMARK    6  A    between atoms: N_9  and  C_26
REMARK    7  A    between atoms: C_11  and  O_28
REMARK    8  A    between atoms: C_15  and  C_20
REMARK    9  A    between atoms: C_15  and  N_22
REMARK   10  A    between atoms: C_18  and  N_22
REMARK   11  A    between atoms: C_18  and  C_27
REMARK                            x       y       z     vdW  Elec       q    Type
REMARK                         _______ _______ _______ _____ _____    ______ ____
ROOT
ATOM      1  C   UNL     1       3.967  56.826  22.401  0.00  0.00    +0.000 C 
ATOM      2  N   UNL     1       3.889  56.094  21.240  0.00  0.00    +0.000 N 
ATOM      3  O   UNL     1       3.027  56.911  23.189  0.00  0.00    +0.000 OA
ATOM      4  H   UNL     1       4.691  56.002  20.675  0.00  0.00    +0.000 HD
ENDROOT
BRANCH   1   7
ATOM      5  C   UNL     1       5.186  61.267  22.524  0.00  0.00    +0.000 C 
ATOM      6  C   UNL     1       5.403  59.260  21.016  0.00  0.00    +0.000 C 
ATOM      7  C   UNL     1       5.335  57.519  22.636  0.00  0.00    +0.000 C 
ATOM      8  C   UNL     1       4.783  59.816  22.309  0.00  0.00    +0.000 C 
ATOM      9  C   UNL     1       6.556  60.107  20.473  0.00  0.00    +0.000 C 
ATOM     10  O   UNL     1       5.409  61.727  23.642  0.00  0.00    +0.000 OA
ATOM     11  C   UNL     1       5.191  62.119  21.268  0.00  0.00    +0.000 C 
ATOM     12  F   UNL     1       5.529  63.420  21.502  0.00  0.00    +0.000 F 
ATOM     13  N   UNL     1       5.922  57.920  21.335  0.00  0.00    +0.000 N 
ATOM     14  C   UNL     1       6.145  61.555  20.221  0.00  0.00    +0.000 C 
ATOM     15  C   UNL     1       5.250  58.846  23.397  0.00  0.00    +0.000 C 
ATOM     16  H   UNL     1       6.939  57.948  21.406  0.00  0.00    +0.000 HD
ATOM     17  H   UNL     1       5.675  57.253  20.605  0.00  0.00    +0.000 HD
BRANCH  15  18
ATOM     18  C   UNL     1       4.358  58.850  24.646  0.00  0.00    +0.000 C 
ATOM     19  C   UNL     1       5.137  58.557  25.921  0.00  0.00    +0.000 C 
ENDBRANCH  15  18
ENDBRANCH   1   7
BRANCH   2  26
ATOM     20  C   UNL     1       2.713  55.235  19.311  0.00  0.00    +0.000 C 
ATOM     21  C   UNL     1       2.461  54.093  21.496  0.00  0.00    +0.000 C 
ATOM     22  C   UNL     1       0.655  53.884  19.688  0.00  0.00    +0.000 C 
ATOM     23  C   UNL     1       1.145  53.422  21.071  0.00  0.00    +0.000 C 
ATOM     24  O   UNL     1       3.470  55.893  18.593  0.00  0.00    +0.000 OA
ATOM     25  C   UNL     1       1.811  54.162  18.736  0.00  0.00    +0.000 C 
ATOM     26  C   UNL     1       2.651  55.450  20.826  0.00  0.00    +0.000 C 
BRANCH  23  27
ATOM     27  O   UNL     1       1.354  52.008  20.996  0.00  0.00    +0.000 OA
BRANCH  27  28
ATOM     28  S   UNL     1       2.864  51.488  21.466  0.00  0.00    +0.000 S 
BRANCH  28  29
ATOM     29  N   UNL     1       3.315  50.797  20.012  0.00  0.00    +0.000 NA
BRANCH  29  30
ATOM     30  C   UNL     1       4.358  49.753  20.035  0.00  0.00    +0.000 C 
ATOM     31  C   UNL     1       4.720  49.252  21.429  0.00  0.00    +0.000 C 
ENDBRANCH  29  30
BRANCH  29  32
ATOM     32  C   UNL     1       2.270  50.564  18.999  0.00  0.00    +0.000 C 
ATOM     33  C   UNL     1       2.212  49.140  18.456  0.00  0.00    +0.000 C 
ENDBRANCH  29  32
ENDBRANCH  28  29
ENDBRANCH  27  28
ENDBRANCH  23  27
ENDBRANCH   2  26
TORSDOF 8
ENDMDL

MODEL 55
REMARK VINA RESULT:      -5.7      0.000      0.000
REMARK  Name = 
REMARK  17 active torsions:
REMARK  status: ('A' for Active; 'I' for Inactive)
REMARK    1  A    between atoms: C_2  and  C_4
REMARK    2  A    between atoms: C_3  and  N_25
REMARK    3  A    between atoms: O_5  and  C_16
REMARK    4  A    between atoms: O_5  and  O_22
REMARK    5  A    between atoms: C_6  and  C_23
REMARK    6  A    between atoms: O_8  and  C_19
REMARK    7  A    between atoms: O_9  and  C_23
REMARK    8  A    between atoms: O_10  and  C_21
REMARK    9  A    between atoms: O_10  and  C_26
REMARK   10  A    between atoms: C_11  and  C_16
REMARK   11  A    between atoms: C_11  and  C_17
REMARK   12  A    between atoms: C_13  and  C_23
REMARK   13  A    between atoms: C_14  and  C_24
REMARK   14  A    between atoms: C_15  and  C_18
REMARK   15  A    between atoms: C_15  and  C_20
REMARK   16  A    between atoms: C_16  and  C_24
REMARK   17  A    between atoms: C_21  and  O_22
REMARK                            x       y       z     vdW  Elec       q    Type
REMARK                         _______ _______ _______ _____ _____    ______ ____
ROOT
ATOM      1  C   UNL     1       3.948  58.494  20.832  0.00  0.00    +0.000 C 
ATOM      2  C   UNL     1       4.141  56.145  21.152  0.00  0.00    +0.000 C 
ATOM      3  C   UNL     1       5.039  56.803  22.214  0.00  0.00    +0.000 C 
ATOM      4  C   UNL     1       3.996  57.195  20.039  0.00  0.00    +0.000 C 
ATOM      5  C   UNL     1       5.078  58.304  21.849  0.00  0.00    +0.000 C 
ENDROOT
BRANCH   2   6
ATOM      6  N   UNL     1       4.644  54.850  20.700  0.00  0.00    +0.000 N 
ATOM      7  H   UNL     1       4.674  54.202  21.489  0.00  0.00    +0.000 HD
ATOM      8  H   UNL     1       5.582  54.963  20.318  0.00  0.00    +0.000 HD
ATOM      9  H   UNL     1       4.026  54.478  19.979  0.00  0.00    +0.000 HD
ENDBRANCH   2   6
BRANCH   4  10
ATOM     10  O   UNL     1       2.802  57.020  19.293  0.00  0.00    +0.000 OA
ATOM     11  H   UNL     1       2.106  56.676  19.874  0.00  0.00    +0.000 HD
ENDBRANCH   4  10
BRANCH   5  12
ATOM     12  O   UNL     1       5.036  59.232  22.929  0.00  0.00    +0.000 OA
BRANCH  12  18
ATOM     13  C   UNL     1       3.742  59.730  25.703  0.00  0.00    +0.000 C 
ATOM     14  C   UNL     1       4.533  58.754  26.575  0.00  0.00    +0.000 C 
ATOM     15  C   UNL     1       4.546  60.960  25.250  0.00  0.00    +0.000 C 
ATOM     16  N   UNL     1       3.283  59.046  24.480  0.00  0.00    +0.000 N 
ATOM     17  C   UNL     1       3.967  61.204  23.842  0.00  0.00    +0.000 C 
ATOM     18  C   UNL     1       3.786  59.772  23.315  0.00  0.00    +0.000 C 
ATOM     19  H   UNL     1       2.263  59.030  24.458  0.00  0.00    +0.000 HD
ATOM     20  H   UNL     1       3.632  58.088  24.467  0.00  0.00    +0.000 HD
BRANCH  15  22
ATOM     21  C   UNL     1       5.619  62.337  27.148  0.00  0.00    +0.000 C 
ATOM     22  C   UNL     1       4.462  62.198  26.168  0.00  0.00    +0.000 C 
BRANCH  22  23
ATOM     23  O   UNL     1       3.239  62.236  26.899  0.00  0.00    +0.000 OA
ATOM     24  H   UNL     1       2.559  61.742  26.416  0.00  0.00    +0.000 HD
ENDBRANCH  22  23
ENDBRANCH  15  22
BRANCH  17  25
ATOM     25  C   UNL     1       4.846  62.120  22.979  0.00  0.00    +0.000 C 
ATOM     26  C   UNL     1       4.196  62.468  21.648  0.00  0.00    +0.000 C 
ENDBRANCH  17  25
ENDBRANCH  12  18
ENDBRANCH   5  12
BRANCH   5  27
ATOM     27  O   UNL     1       6.289  58.518  21.075  0.00  0.00    +0.000 OA
BRANCH  27  28
ATOM     28  O   UNL     1       6.275  59.907  20.613  0.00  0.00    +0.000 OA
BRANCH  28  29
ATOM     29  C   UNL     1       7.483  60.077  19.855  0.00  0.00    +0.000 C 
BRANCH  29  30
ATOM     30  C   UNL     1       7.421  61.411  19.096  0.00  0.00    +0.000 C 
ATOM     31  C   UNL     1       7.406  62.641  19.994  0.00  0.00    +0.000 C 
ENDBRANCH  29  30
BRANCH  29  33
ATOM     32  C   UNL     1       7.847  59.156  17.495  0.00  0.00    +0.000 C 
ATOM     33  C   UNL     1       7.641  58.837  18.966  0.00  0.00    +0.000 C 
ENDBRANCH  29  33
ENDBRANCH  28  29
ENDBRANCH  27  28
ENDBRANCH   5  27
TORSDOF 12
ENDMDL

MODEL 56
ROOT
ATOM      1  C   UNL     1       0.000   0.000   0.000  0.00  0.00    +0.000 C
ENDROOT
TORSDOF 0
ENDMDL

MODEL 57
REMARK VINA RESULT:      -7.1      0.000      0.000
REMARK  Name = 
REMARK  12 active torsions:
REMARK  status: ('A' for Active; 'I' for Inactive)
REMARK    1  A    between atoms: C_3  and  C_8
REMARK    2  A    between atoms: C_4  and  C_21
REMARK    3  A    between atoms: C_5  and  C_15
REMARK    4  A    between atoms: C_8  and  C_25
REMARK    5  A    between atoms: C_10  and  N_26
REMARK    6  A    between atoms: O_11  and  C_20
REMARK    7  A    between atoms: C_12  and  C_15
REMARK    8  A    between atoms: C_12  and  C_19
REMARK    9  A    between atoms: C_13  and  C_23
REMARK   10  A    between atoms: C_15  and  O_18
REMARK   11  A    between atoms: O_17  and  O_18
REMARK   12  A    between atoms: O_17  and  C_27
REMARK                            x       y       z     vdW  Elec       q    Type
REMARK                         _______ _______ _______ _____ _____    ______ ____
ROOT
ATOM      1  C   UNL     1       5.679  61.919  21.275  0.00  0.00    +0.000 C 
ATOM      2  C   UNL     1       6.366  59.908  20.440  0.00  0.00    +0.000 C 
ATOM      3  C   UNL     1       5.054  59.469  22.366  0.00  0.00    +0.000 C 
ATOM      4  N   UNL     1       6.767  58.585  20.859  0.00  0.00    +0.000 N 
ATOM      5  C   UNL     1       7.710  60.624  18.404  0.00  0.00    +0.000 C 
ATOM      6  O   UNL     1       4.969  62.747  21.829  0.00  0.00    +0.000 OA
ATOM      7  C   UNL     1       6.489  62.215  19.996  0.00  0.00    +0.000 C 
ATOM      8  C   UNL     1       5.653  58.151  21.756  0.00  0.00    +0.000 C 
ATOM      9  C   UNL     1       5.978  60.528  21.776  0.00  0.00    +0.000 C 
ATOM     10  C   UNL     1       7.327  60.926  19.843  0.00  0.00    +0.000 C 
ATOM     11  H   UNL     1       7.651  58.614  21.365  0.00  0.00    +0.000 HD
ATOM     12  H   UNL     1       6.917  57.948  20.076  0.00  0.00    +0.000 HD
ENDROOT
BRANCH   8  13
ATOM     13  C   UNL     1       4.676  57.311  20.944  0.00  0.00    +0.000 C 
ATOM     14  N   UNL     1       4.415  56.087  21.278  0.00  0.00    +0.000 NA
BRANCH  14  17
ATOM     15  C   UNL     1       3.101  55.983  19.240  0.00  0.00    +0.000 A 
ATOM     16  C   UNL     1       1.677  54.080  18.805  0.00  0.00    +0.000 A 
ATOM     17  C   UNL     1       3.504  55.416  20.451  0.00  0.00    +0.000 A 
ATOM     18  C   UNL     1       2.969  54.188  20.845  0.00  0.00    +0.000 A 
ATOM     19  C   UNL     1       2.195  55.316  18.415  0.00  0.00    +0.000 A 
ATOM     20  C   UNL     1       2.053  53.523  20.028  0.00  0.00    +0.000 A 
BRANCH  20  21
ATOM     21  O   UNL     1       1.599  52.311  20.496  0.00  0.00    +0.000 OA
BRANCH  21  22
ATOM     22  O   UNL     1       2.295  52.001  21.742  0.00  0.00    +0.000 OA
BRANCH  22  24
ATOM     23  C   UNL     1       2.931  50.161  23.215  0.00  0.00    +0.000 C 
ATOM     24  C   UNL     1       2.334  50.571  21.871  0.00  0.00    +0.000 C 
BRANCH  24  25
ATOM     25  C   UNL     1       3.028  49.938  20.657  0.00  0.00    +0.000 C 
ATOM     26  C   UNL     1       4.520  50.222  20.597  0.00  0.00    +0.000 C 
ENDBRANCH  24  25
ENDBRANCH  22  24
ENDBRANCH  21  22
ENDBRANCH  20  21
ENDBRANCH  14  17
ENDBRANCH   8  13
BRANCH   3  27
ATOM     27  C   UNL     1       3.552  59.692  22.131  0.00  0.00    +0.000 C 
ATOM     28  C   UNL     1       2.742  59.657  23.422  0.00  0.00    +0.000 C 
ENDBRANCH   3  27
BRANCH   7  29
ATOM     29  O   UNL     1       7.316  63.351  20.089  0.00  0.00    +0.000 OA
ATOM     30  H   UNL     1       6.775  64.152  20.006  0.00  0.00    +0.000 HD
ENDBRANCH   7  29
TORSDOF 8
ENDMDL

MODEL 58
REMARK VINA RESULT:      -7.0      0.000      0.000
REMARK  Name = 
REMARK  14 active torsions:
REMARK  status: ('A' for Active; 'I' for Inactive)
REMARK    1  A    between atoms: C_1  and  C_20
REMARK    2  A    between atoms: C_2  and  O_7
REMARK    3  A    between atoms: C_3  and  C_12
REMARK    4  A    between atoms: C_3  and  C_24
REMARK    5  A    between atoms: C_4  and  C_21
REMARK    6  A    between atoms: C_6  and  C_13
REMARK    7  A    between atoms: C_6  and  C_17
REMARK    8  A    between atoms: C_6  and  N_26
REMARK    9  A    between atoms: S_9  and  N_26
REMARK   10  A    between atoms: N_10  and  C_19
REMARK   11  A    between atoms: C_11  and  C_17
REMARK   12  A    between atoms: C_14  and  C_29
REMARK   13  A    between atoms: C_18  and  C_20
REMARK   14  A    between atoms: N_26  and  C_27
REMARK                            x       y       z     vdW  Elec       q    Type
REMARK                         _______ _______ _______ _____ _____    ______ ____
ROOT
ATOM      1  N   UNL     1       3.354  56.068  20.037  0.00  0.00    +0.000 N 
ATOM      2  O   UNL     1       4.672  56.027  21.954  0.00  0.00    +0.000 OA
ATOM      3  C   UNL     1       4.242  56.592  20.951  0.00  0.00    +0.000 C 
ATOM      4  H   UNL     1       3.113  56.665  19.292  0.00  0.00    +0.000 HD
ENDROOT
BRANCH   3   8
ATOM      5  C   UNL     1       4.031  59.135  21.390  0.00  0.00    +0.000 C 
ATOM      6  C   UNL     1       6.347  59.699  20.869  0.00  0.00    +0.000 C 
ATOM      7  N   UNL     1       6.149  58.232  20.832  0.00  0.00    +0.000 N 
ATOM      8  C   UNL     1       4.701  58.014  20.592  0.00  0.00    +0.000 C 
ATOM      9  C   UNL     1       7.045  60.146  19.580  0.00  0.00    +0.000 C 
ATOM     10  C   UNL     1       4.950  60.327  21.030  0.00  0.00    +0.000 C 
ATOM     11  H   UNL     1       6.425  57.817  21.721  0.00  0.00    +0.000 HD
ATOM     12  H   UNL     1       6.715  57.800  20.103  0.00  0.00    +0.000 HD
BRANCH  10  13
ATOM     13  C   UNL     1       4.778  61.525  21.950  0.00  0.00    +0.000 C 
ATOM     14  O   UNL     1       4.045  62.478  21.691  0.00  0.00    +0.000 OA
BRANCH  13  15
ATOM     15  C   UNL     1       5.580  61.643  23.227  0.00  0.00    +0.000 C 
ATOM     16  O   UNL     1       5.089  61.990  24.286  0.00  0.00    +0.000 OA
ENDBRANCH  13  15
ENDBRANCH  10  13
BRANCH   5  18
ATOM     17  C   UNL     1       2.531  59.323  23.550  0.00  0.00    +0.000 C 
ATOM     18  C   UNL     1       3.822  58.846  22.899  0.00  0.00    +0.000 C 
ENDBRANCH   5  18
ENDBRANCH   3   8
BRANCH   1  22
ATOM     19  C   UNL     1       1.971  54.490  18.890  0.00  0.00    +0.000 A 
ATOM     20  C   UNL     1       1.468  52.329  19.815  0.00  0.00    +0.000 A 
ATOM     21  C   UNL     1       2.863  53.859  21.040  0.00  0.00    +0.000 A 
ATOM     22  C   UNL     1       2.743  54.802  20.015  0.00  0.00    +0.000 A 
ATOM     23  C   UNL     1       1.334  53.261  18.781  0.00  0.00    +0.000 A 
ATOM     24  C   UNL     1       2.226  52.605  20.968  0.00  0.00    +0.000 A 
BRANCH  19  25
ATOM     25  O   UNL     1       1.859  55.424  17.892  0.00  0.00    +0.000 OA
ATOM     26  H   UNL     1       2.485  56.118  17.830  0.00  0.00    +0.000 HD
ENDBRANCH  19  25
BRANCH  24  27
ATOM     27  N   UNL     1       2.355  51.628  21.985  0.00  0.00    +0.000 N 
BRANCH  27  28
ATOM     28  S   UNL     1       1.273  51.646  23.331  0.00  0.00    +0.000 S 
ATOM     29  O   UNL     1      -0.058  52.230  22.968  0.00  0.00    +0.000 OA
ATOM     30  H   UNL     1       1.088  50.370  23.764  0.00  0.00    +0.000 HD
ENDBRANCH  27  28
BRANCH  27  31
ATOM     31  C   UNL     1       3.095  50.397  21.624  0.00  0.00    +0.000 C 
ATOM     32  C   UNL     1       3.405  49.548  22.862  0.00  0.00    +0.000 C 
BRANCH  31  34
ATOM     33  C   UNL     1       4.835  49.476  19.987  0.00  0.00    +0.000 C 
ATOM     34  C   UNL     1       4.366  50.676  20.799  0.00  0.00    +0.000 C 
ENDBRANCH  31  34
ENDBRANCH  27  31
ENDBRANCH  24  27
ENDBRANCH   1  22
TORSDOF 10
ENDMDL

MODEL 59
ROOT
ATOM      1  C   UNL     1       0.000   0.000   0.000  0.00  0.00    +0.000 C
ENDROOT
TORSDOF 0
ENDMDL

MODEL 60
REMARK VINA RESULT:      -7.3      0.000      0.000
REMARK  Name = 
REMARK  11 active torsions:
REMARK  status: ('A' for Active; 'I' for Inactive)
REMARK    1  A    between atoms: O_1  and  C_14
REMARK    2  A    between atoms: C_4  and  C_14
REMARK    3  A    between atoms: C_6  and  N_22
REMARK    4  A    between atoms: C_9  and  C_21
REMARK    5  A    between atoms: C_10  and  C_13
REMARK    6  A    between atoms: C_10  and  N_22
REMARK    7  A    between atoms: S_11  and  N_22
REMARK    8  A    between atoms: C_13  and  C_21
REMARK    9  A    between atoms: C_14  and  C_19
REMARK   10  A    between atoms: O_15  and  C_16
REMARK   11  A    between atoms: C_17  and  C_28
REMARK                            x       y       z     vdW  Elec       q    Type
REMARK                         _______ _______ _______ _____ _____    ______ ____
ROOT
ATOM      1  C   UNL     1       5.940  58.450  21.214  0.00  0.00    +0.000 C 
ENDROOT
BRANCH   1   8
ATOM      2  O   UNL     1       2.538  54.074  22.585  0.00  0.00    +0.000 OA
ATOM      3  N   UNL     1       4.342  57.318  19.695  0.00  0.00    +0.000 NA
ATOM      4  C   UNL     1       3.459  55.780  21.154  0.00  0.00    +0.000 C 
ATOM      5  C   UNL     1       2.625  55.821  18.864  0.00  0.00    +0.000 C 
ATOM      6  C   UNL     1       1.691  54.149  20.384  0.00  0.00    +0.000 C 
ATOM      7  C   UNL     1       4.348  56.445  21.899  0.00  0.00    +0.000 C 
ATOM      8  C   UNL     1       4.868  57.410  20.894  0.00  0.00    +0.000 C 
ATOM      9  C   UNL     1       3.434  56.305  19.811  0.00  0.00    +0.000 C 
ATOM     10  C   UNL     1       1.731  54.723  19.171  0.00  0.00    +0.000 C 
ATOM     11  C   UNL     1       2.582  54.635  21.495  0.00  0.00    +0.000 C 
BRANCH   6  12
ATOM     12  O   UNL     1       0.837  53.096  20.655  0.00  0.00    +0.000 OA
ATOM     13  H   UNL     1      -0.036  53.265  20.950  0.00  0.00    +0.000 HD
ENDBRANCH   6  12
BRANCH   7  15
ATOM     14  C   UNL     1       4.064  56.609  24.330  0.00  0.00    +0.000 C 
ATOM     15  C   UNL     1       4.798  56.311  23.251  0.00  0.00    +0.000 C 
ENDBRANCH   7  15
ENDBRANCH   1   8
BRANCH   1  17
ATOM     16  C   UNL     1       5.026  62.147  21.141  0.00  0.00    +0.000 A 
ATOM     17  C   UNL     1       5.362  59.794  21.596  0.00  0.00    +0.000 A 
ATOM     18  C   UNL     1       4.121  61.196  23.194  0.00  0.00    +0.000 A 
ATOM     19  C   UNL     1       5.536  60.906  20.766  0.00  0.00    +0.000 A 
ATOM     20  C   UNL     1       4.332  62.290  22.345  0.00  0.00    +0.000 A 
ATOM     21  C   UNL     1       4.639  59.951  22.792  0.00  0.00    +0.000 A 
BRANCH  18  22
ATOM     22  N   UNL     1       3.420  61.281  24.413  0.00  0.00    +0.000 N 
BRANCH  22  23
ATOM     23  S   UNL     1       3.044  62.890  24.956  0.00  0.00    +0.000 S 
ATOM     24  O   UNL     1       4.146  63.410  25.829  0.00  0.00    +0.000 OA
ATOM     25  H   UNL     1       2.898  63.706  23.879  0.00  0.00    +0.000 HD
ENDBRANCH  22  23
BRANCH  22  26
ATOM     26  C   UNL     1       3.696  60.310  25.481  0.00  0.00    +0.000 C 
BRANCH  26  27
ATOM     27  C   UNL     1       2.438  59.544  25.918  0.00  0.00    +0.000 C 
BRANCH  27  29
ATOM     28  C   UNL     1      -0.054  59.421  25.363  0.00  0.00    +0.000 C 
ATOM     29  C   UNL     1       1.370  59.375  24.831  0.00  0.00    +0.000 C 
ENDBRANCH  27  29
ENDBRANCH  26  27
ENDBRANCH  22  26
ENDBRANCH  18  22
ENDBRANCH   1  17
BRANCH   1  30
ATOM     30  O   UNL     1       6.794  58.652  20.090  0.00  0.00    +0.000 OA
ATOM     31  H   UNL     1       6.431  58.187  19.320  0.00  0.00    +0.000 HD
ENDBRANCH   1  30
TORSDOF 10
ENDMDL

MODEL 61
REMARK VINA RESULT:      -6.9      0.000      0.000
REMARK  Name = 
REMARK  16 active torsions:
REMARK  status: ('A' for Active; 'I' for Inactive)
REMARK    1  A    between atoms: C_2  and  O_14
REMARK    2  A    between atoms: C_4  and  O_19
REMARK    3  A    between atoms: C_4  and  C_24
REMARK    4  A    between atoms: C_4  and  C_25
REMARK    5  A    between atoms: C_5  and  C_13
REMARK    6  A    between atoms: C_6  and  O_12
REMARK    7  A    between atoms: C_6  and  C_15
REMARK    8  A    between atoms: C_6  and  C_26
REMARK    9  A    between atoms: C_7  and  C_18
REMARK   10  A    between atoms: C_8  and  C_18
REMARK   11  A    between atoms: C_9  and  C_13
REMARK   12  A    between atoms: C_9  and  C_23
REMARK   13  A    between atoms: C_10  and  C_21
REMARK   14  A    between atoms: O_12  and  C_22
REMARK   15  A    between atoms: C_17  and  C_26
REMARK   16  A    between atoms: O_20  and  C_25
REMARK                            x       y       z     vdW  Elec       q    Type
REMARK                         _______ _______ _______ _____ _____    ______ ____
ROOT
ATOM      1  C   UNL     1       4.107  59.217  23.548  0.00  0.00    +0.000 C 
ATOM      2  C   UNL     1       5.055  60.026  24.439  0.00  0.00    +0.000 C 
ATOM      3  C   UNL     1       4.835  57.786  25.319  0.00  0.00    +0.000 C 
ATOM      4  N   UNL     1       4.422  57.823  23.908  0.00  0.00    +0.000 N 
ATOM      5  C   UNL     1       6.091  56.931  25.407  0.00  0.00    +0.000 C 
ATOM      6  C   UNL     1       4.935  59.261  25.768  0.00  0.00    +0.000 C 
ATOM      7  H   UNL     1       5.180  57.479  23.320  0.00  0.00    +0.000 HD
ATOM      8  H   UNL     1       3.602  57.233  23.768  0.00  0.00    +0.000 HD
ENDROOT
BRANCH   1  10
ATOM      9  O   UNL     1       3.458  59.787  21.271  0.00  0.00    +0.000 OA
ATOM     10  C   UNL     1       4.350  59.440  22.050  0.00  0.00    +0.000 C 
BRANCH  10  11
ATOM     11  C   UNL     1       5.755  59.190  21.530  0.00  0.00    +0.000 C 
BRANCH  11  16
ATOM     12  C   UNL     1       7.171  62.399  20.085  0.00  0.00    +0.000 C 
ATOM     13  C   UNL     1       6.313  61.627  21.092  0.00  0.00    +0.000 C 
ATOM     14  C   UNL     1       7.613  60.005  19.966  0.00  0.00    +0.000 C 
ATOM     15  C   UNL     1       7.925  61.333  19.274  0.00  0.00    +0.000 C 
ATOM     16  C   UNL     1       6.200  60.223  20.504  0.00  0.00    +0.000 C 
BRANCH  13  17
ATOM     17  O   UNL     1       5.028  62.204  21.247  0.00  0.00    +0.000 OA
ATOM     18  H   UNL     1       4.824  62.292  22.190  0.00  0.00    +0.000 HD
ENDBRANCH  13  17
BRANCH  15  19
ATOM     19  O   UNL     1       7.387  61.263  17.948  0.00  0.00    +0.000 OA
BRANCH  19  20
ATOM     20  C   UNL     1       8.281  60.669  16.998  0.00  0.00    +0.000 C 
ATOM     21  C   UNL     1       8.801  61.804  16.120  0.00  0.00    +0.000 C 
BRANCH  20  23
ATOM     22  C   UNL     1       7.968  58.190  16.438  0.00  0.00    +0.000 C 
ATOM     23  C   UNL     1       7.572  59.615  16.160  0.00  0.00    +0.000 C 
ATOM     24  C   UNL     1       6.638  59.897  15.235  0.00  0.00    +0.000 C 
ENDBRANCH  20  23
ENDBRANCH  19  20
ENDBRANCH  15  19
ENDBRANCH  11  16
ENDBRANCH  10  11
ENDBRANCH   1  10
BRANCH   2  26
ATOM     25  C   UNL     1       3.306  61.933  24.682  0.00  0.00    +0.000 C 
ATOM     26  C   UNL     1       4.761  61.533  24.483  0.00  0.00    +0.000 C 
ENDBRANCH   2  26
BRANCH   6  27
ATOM     27  C   UNL     1       5.955  59.597  26.866  0.00  0.00    +0.000 C 
BRANCH  27  28
ATOM     28  O   UNL     1       5.688  58.777  28.024  0.00  0.00    +0.000 OA
ATOM     29  H   UNL     1       5.738  57.841  27.776  0.00  0.00    +0.000 HD
ENDBRANCH  27  28
BRANCH  27  30
ATOM     30  C   UNL     1       5.975  61.046  27.373  0.00  0.00    +0.000 C 
BRANCH  30  31
ATOM     31  O   UNL     1       7.110  61.213  28.228  0.00  0.00    +0.000 OA
ATOM     32  H   UNL     1       7.143  60.485  28.868  0.00  0.00    +0.000 HD
ENDBRANCH  30  31
ENDBRANCH  27  30
ENDBRANCH   6  27
TORSDOF 12
ENDMDL

MODEL 62
ROOT
ATOM      1  C   UNL     1       0.000   0.000   0.000  0.00  0.00    +0.000 C
ENDROOT
TORSDOF 0
ENDMDL

MODEL 63
REMARK VINA RESULT:      -6.6      0.000      0.000
REMARK  Name = 
REMARK  14 active torsions:
REMARK  status: ('A' for Active; 'I' for Inactive)
REMARK    1  A    between atoms: C_1  and  O_18
REMARK    2  A    between atoms: C_3  and  C_5
REMARK    3  A    between atoms: C_4  and  C_17
REMARK    4  A    between atoms: C_4  and  C_22
REMARK    5  A    between atoms: C_5  and  C_26
REMARK    6  A    between atoms: C_6  and  N_10
REMARK    7  A    between atoms: C_6  and  O_15
REMARK    8  A    between atoms: C_6  and  C_25
REMARK    9  A    between atoms: C_8  and  C_26
REMARK   10  A    between atoms: C_8  and  C_27
REMARK   11  A    between atoms: N_10  and  C_20
REMARK   12  A    between atoms: C_13  and  C_21
REMARK   13  A    between atoms: O_15  and  O_18
REMARK   14  A    between atoms: C_16  and  C_20
REMARK                            x       y       z     vdW  Elec       q    Type
REMARK                         _______ _______ _______ _____ _____    ______ ____
ROOT
ATOM      1  C   UNL     1       5.049  58.296  21.434  0.00  0.00    +0.000 C 
ATOM      2  C   UNL     1       3.620  55.756  22.020  0.00  0.00    +0.000 C 
ATOM      3  C   UNL     1       4.158  57.581  20.411  0.00  0.00    +0.000 C 
ATOM      4  C   UNL     1       5.061  57.607  22.808  0.00  0.00    +0.000 C 
ATOM      5  O   UNL     1       3.148  54.648  22.278  0.00  0.00    +0.000 OA
ATOM      6  C   UNL     1       4.125  56.077  20.628  0.00  0.00    +0.000 C 
ATOM      7  C   UNL     1       3.753  56.849  23.079  0.00  0.00    +0.000 C 
ENDROOT
BRANCH   7   8
ATOM      8  C   UNL     1       3.770  56.233  24.481  0.00  0.00    +0.000 C 
BRANCH   8  10
ATOM      9  O   UNL     1       5.848  56.885  25.497  0.00  0.00    +0.000 OA
ATOM     10  C   UNL     1       4.628  57.055  25.427  0.00  0.00    +0.000 C 
BRANCH  10  11
ATOM     11  C   UNL     1       3.928  58.038  26.340  0.00  0.00    +0.000 C 
BRANCH  11  12
ATOM     12  C   UNL     1       4.350  59.461  25.984  0.00  0.00    +0.000 C 
ATOM     13  C   UNL     1       4.309  63.428  27.158  0.00  0.00    +0.000 C 
ATOM     14  C   UNL     1       3.690  61.807  25.381  0.00  0.00    +0.000 C 
ATOM     15  C   UNL     1       6.478  61.601  28.114  0.00  0.00    +0.000 C 
ATOM     16  C   UNL     1       5.637  61.272  26.884  0.00  0.00    +0.000 C 
ATOM     17  C   UNL     1       3.155  60.382  25.629  0.00  0.00    +0.000 C 
ATOM     18  O   UNL     1       5.025  59.999  27.135  0.00  0.00    +0.000 OA
ATOM     19  C   UNL     1       4.547  62.261  26.535  0.00  0.00    +0.000 C 
BRANCH  17  20
ATOM     20  C   UNL     1       2.350  59.907  24.402  0.00  0.00    +0.000 C 
ATOM     21  C   UNL     1       0.922  59.507  24.755  0.00  0.00    +0.000 C 
ENDBRANCH  17  20
ENDBRANCH  11  12
ENDBRANCH  10  11
ENDBRANCH   8  10
ENDBRANCH   7   8
BRANCH   1  22
ATOM     22  O   UNL     1       4.554  59.626  21.616  0.00  0.00    +0.000 OA
BRANCH  22  23
ATOM     23  O   UNL     1       5.504  60.295  22.500  0.00  0.00    +0.000 OA
BRANCH  23  24
ATOM     24  C   UNL     1       5.565  61.682  22.123  0.00  0.00    +0.000 C 
ATOM     25  C   UNL     1       4.275  62.133  21.440  0.00  0.00    +0.000 C 
BRANCH  24  26
ATOM     26  N   UNL     1       6.838  62.021  21.486  0.00  0.00    +0.000 N 
ATOM     27  H   UNL     1       7.572  61.494  21.960  0.00  0.00    +0.000 HD
ATOM     28  H   UNL     1       6.921  63.035  21.573  0.00  0.00    +0.000 HD
BRANCH  26  30
ATOM     29  C   UNL     1       7.642  60.420  19.796  0.00  0.00    +0.000 C 
ATOM     30  C   UNL     1       6.947  61.748  20.057  0.00  0.00    +0.000 C 
ENDBRANCH  26  30
ENDBRANCH  24  26
ENDBRANCH  23  24
ENDBRANCH  22  23
ENDBRANCH   1  22
TORSDOF 10
ENDMDL

MODEL 64
REMARK VINA RESULT:      -5.6      0.000      0.000
REMARK  Name = 
REMARK  15 active torsions:
REMARK  status: ('A' for Active; 'I' for Inactive)
REMARK    1  A    between atoms: C_1  and  C_9
REMARK    2  A    between atoms: C_2  and  C_9
REMARK    3  A    between atoms: C_2  and  C_19
REMARK    4  A    between atoms: S_3  and  N_22
REMARK    5  A    between atoms: O_4  and  C_13
REMARK    6  A    between atoms: C_6  and  N_26
REMARK    7  A    between atoms: C_8  and  C_10
REMARK    8  A    between atoms: C_8  and  C_17
REMARK    9  A    between atoms: C_10  and  N_22
REMARK   10  A    between atoms: C_11  and  C_15
REMARK   11  A    between atoms: C_11  and  C_25
REMARK   12  A    between atoms: C_13  and  C_25
REMARK   13  A    between atoms: C_17  and  C_24
REMARK   14  A    between atoms: C_18  and  C_19
REMARK   15  A    between atoms: C_20  and  N_22
REMARK                            x       y       z     vdW  Elec       q    Type
REMARK                         _______ _______ _______ _____ _____    ______ ____
ROOT
ATOM      1  C   UNL     1       4.416  56.881  23.782  0.00  0.00    +0.000 C 
ATOM      2  C   UNL     1       4.605  57.439  21.342  0.00  0.00    +0.000 C 
ATOM      3  N   UNL     1       3.925  56.840  22.474  0.00  0.00    +0.000 N 
ATOM      4  C   UNL     1       2.882  55.853  22.159  0.00  0.00    +0.000 C 
ATOM      5  C   UNL     1       3.971  55.443  19.912  0.00  0.00    +0.000 C 
ATOM      6  C   UNL     1       3.432  54.760  21.205  0.00  0.00    +0.000 C 
ATOM      7  C   UNL     1       4.043  56.969  19.997  0.00  0.00    +0.000 C 
ATOM      8  O   UNL     1       3.906  56.202  24.679  0.00  0.00    +0.000 OA
ENDROOT
BRANCH   2   9
ATOM      9  N   UNL     1       4.426  58.869  21.474  0.00  0.00    +0.000 N 
ATOM     10  H   UNL     1       3.827  59.065  22.276  0.00  0.00    +0.000 HD
ATOM     11  H   UNL     1       3.991  59.238  20.628  0.00  0.00    +0.000 HD
ATOM     12  H   UNL     1       5.334  59.314  21.612  0.00  0.00    +0.000 HD
ENDBRANCH   2   9
BRANCH   1  13
ATOM     13  C   UNL     1       5.585  57.834  24.086  0.00  0.00    +0.000 C 
BRANCH  13  14
ATOM     14  C   UNL     1       5.277  58.740  25.274  0.00  0.00    +0.000 C 
ATOM     15  C   UNL     1       5.924  58.655  26.464  0.00  0.00    +0.000 C 
BRANCH  15  17
ATOM     16  O   UNL     1       4.745  59.288  28.442  0.00  0.00    +0.000 OA
ATOM     17  C   UNL     1       5.516  59.618  27.540  0.00  0.00    +0.000 C 
BRANCH  17  18
ATOM     18  C   UNL     1       6.108  61.023  27.467  0.00  0.00    +0.000 C 
BRANCH  18  19
ATOM     19  O   UNL     1       7.092  61.222  28.478  0.00  0.00    +0.000 OA
ATOM     20  H   UNL     1       6.729  61.789  29.176  0.00  0.00    +0.000 HD
ENDBRANCH  18  19
ENDBRANCH  17  18
ENDBRANCH  15  17
BRANCH  15  21
ATOM     21  C   UNL     1       7.024  57.740  26.741  0.00  0.00    +0.000 C 
ATOM     22  C   UNL     1       6.913  56.555  27.357  0.00  0.00    +0.000 C 
ENDBRANCH  15  21
BRANCH  14  24
ATOM     23  C   UNL     1       4.700  60.944  24.167  0.00  0.00    +0.000 C 
ATOM     24  C   UNL     1       4.187  59.763  24.980  0.00  0.00    +0.000 C 
ENDBRANCH  14  24
ENDBRANCH  13  14
ENDBRANCH   1  13
BRANCH   6  25
ATOM     25  N   UNL     1       2.536  53.628  20.819  0.00  0.00    +0.000 NA
BRANCH  25  26
ATOM     26  S   UNL     1       3.035  52.079  21.303  0.00  0.00    +0.000 S 
ATOM     27  O   UNL     1       4.075  51.481  20.406  0.00  0.00    +0.000 OA
ATOM     28  H   UNL     1       3.547  52.164  22.560  0.00  0.00    +0.000 HD
ENDBRANCH  25  26
BRANCH  25  29
ATOM     29  C   UNL     1       1.100  53.939  20.936  0.00  0.00    +0.000 C 
BRANCH  29  30
ATOM     30  C   UNL     1       0.427  54.405  19.629  0.00  0.00    +0.000 C 
BRANCH  30  31
ATOM     31  C   UNL     1       1.092  53.911  18.339  0.00  0.00    +0.000 C 
ATOM     32  C   UNL     1       0.630  52.528  17.905  0.00  0.00    +0.000 C 
ENDBRANCH  30  31
ENDBRANCH  29  30
ENDBRANCH  25  29
ENDBRANCH   6  25
TORSDOF 13
ENDMDL

MODEL 65
REMARK VINA RESULT:      -6.5      0.000      0.000
REMARK  Name = 
REMARK  15 active torsions:
REMARK  status: ('A' for Active; 'I' for Inactive)
REMARK    1  A    between atoms: N_1  and  C_15
REMARK    2  A    between atoms: C_3  and  C_11
REMARK    3  A    between atoms: C_5  and  C_26
REMARK    4  A    between atoms: C_6  and  O_19
REMARK    5  A    between atoms: C_7  and  O_14
REMARK    6  A    between atoms: C_7  and  C_28
REMARK    7  A    between atoms: C_9  and  C_20
REMARK    8  A    between atoms: C_11  and  C_25
REMARK    9  A    between atoms: C_12  and  C_21
REMARK   10  A    between atoms: C_12  and  C_27
REMARK   11  A    between atoms: C_13  and  C_28
REMARK   12  A    between atoms: C_18  and  C_27
REMARK   13  A    between atoms: O_22  and  O_23
REMARK   14  A    between atoms: O_22  and  C_24
REMARK   15  A    between atoms: O_23  and  C_27
REMARK                            x       y       z     vdW  Elec       q    Type
REMARK                         _______ _______ _______ _____ _____    ______ ____
ROOT
ATOM      1  N   UNL     1       4.831  60.114  23.984  0.00  0.00    +0.000 N 
ATOM      2  C   UNL     1       3.602  59.575  24.300  0.00  0.00    +0.000 C 
ATOM      3  O   UNL     1       2.596  59.609  23.593  0.00  0.00    +0.000 OA
ATOM      4  H   UNL     1       5.523  60.041  24.679  0.00  0.00    +0.000 HD
ENDROOT
BRANCH   2  10
ATOM      5  C   UNL     1       4.906  59.021  26.463  0.00  0.00    +0.000 C 
ATOM      6  C   UNL     1       4.534  56.740  25.813  0.00  0.00    +0.000 C 
ATOM      7  N   UNL     1       3.278  57.467  25.584  0.00  0.00    +0.000 N 
ATOM      8  C   UNL     1       5.184  57.577  26.909  0.00  0.00    +0.000 C 
ATOM      9  C   UNL     1       5.351  56.579  24.530  0.00  0.00    +0.000 C 
ATOM     10  C   UNL     1       3.566  58.924  25.710  0.00  0.00    +0.000 C 
ATOM     11  H   UNL     1       2.584  57.189  26.277  0.00  0.00    +0.000 HD
ATOM     12  H   UNL     1       2.909  57.256  24.656  0.00  0.00    +0.000 HD
BRANCH   8  14
ATOM     13  O   UNL     1       7.567  57.954  26.695  0.00  0.00    +0.000 OA
ATOM     14  C   UNL     1       6.652  57.250  27.127  0.00  0.00    +0.000 C 
BRANCH  14  15
ATOM     15  C   UNL     1       6.964  56.011  27.962  0.00  0.00    +0.000 C 
BRANCH  15  16
ATOM     16  O   UNL     1       6.664  56.217  29.334  0.00  0.00    +0.000 OA
ATOM     17  H   UNL     1       5.711  56.362  29.439  0.00  0.00    +0.000 HD
ENDBRANCH  15  16
ENDBRANCH  14  15
ENDBRANCH   8  14
BRANCH   5  18
ATOM     18  C   UNL     1       4.939  60.054  27.605  0.00  0.00    +0.000 C 
ATOM     19  C   UNL     1       5.880  61.238  27.426  0.00  0.00    +0.000 C 
ENDBRANCH   5  18
ENDBRANCH   2  10
BRANCH   1  23
ATOM     20  C   UNL     1       5.918  60.143  21.753  0.00  0.00    +0.000 A 
ATOM     21  C   UNL     1       4.883  62.115  22.674  0.00  0.00    +0.000 A 
ATOM     22  C   UNL     1       5.918  62.227  20.508  0.00  0.00    +0.000 A 
ATOM     23  C   UNL     1       5.222  60.757  22.792  0.00  0.00    +0.000 A 
ATOM     24  C   UNL     1       5.225  62.853  21.544  0.00  0.00    +0.000 A 
ATOM     25  C   UNL     1       6.253  60.875  20.609  0.00  0.00    +0.000 A 
BRANCH  21  26
ATOM     26  O   UNL     1       4.201  62.703  23.711  0.00  0.00    +0.000 OA
ATOM     27  H   UNL     1       4.617  62.813  24.543  0.00  0.00    +0.000 HD
ENDBRANCH  21  26
BRANCH  25  28
ATOM     28  O   UNL     1       6.955  60.198  19.637  0.00  0.00    +0.000 OA
BRANCH  28  29
ATOM     29  O   UNL     1       7.651  61.183  18.811  0.00  0.00    +0.000 OA
BRANCH  29  31
ATOM     30  C   UNL     1       8.543  61.257  16.540  0.00  0.00    +0.000 C 
ATOM     31  C   UNL     1       8.417  60.458  17.835  0.00  0.00    +0.000 C 
BRANCH  31  32
ATOM     32  C   UNL     1       7.852  59.044  17.647  0.00  0.00    +0.000 C 
ATOM     33  C   UNL     1       8.223  58.418  16.312  0.00  0.00    +0.000 C 
ENDBRANCH  31  32
ENDBRANCH  29  31
ENDBRANCH  28  29
ENDBRANCH  25  28
ENDBRANCH   1  23
TORSDOF 11
ENDMDL

MODEL 66
REMARK VINA RESULT:      -5.9      0.000      0.000
REMARK  Name = 
REMARK  13 active torsions:
REMARK  status: ('A' for Active; 'I' for Inactive)
REMARK    1  A    between atoms: C_1  and  N_16
REMARK    2  A    between atoms: C_4  and  C_23
REMARK    3  A    between atoms: C_5  and  C_24
REMARK    4  A    between atoms: C_6  and  C_24
REMARK    5  A    between atoms: C_7  and  O_8
REMARK    6  A    between atoms: C_7  and  C_14
REMARK    7  A    between atoms: C_7  and  C_15
REMARK    8  A    between atoms: C_10  and  O_20
REMARK    9  A    between atoms: C_11  and  C_26
REMARK   10  A    between atoms: C_14  and  C_21
REMARK   11  A    between atoms: C_15  and  C_18
REMARK   12  A    between atoms: C_15  and  C_19
REMARK   13  A    between atoms: C_22  and  C_27
REMARK                            x       y       z     vdW  Elec       q    Type
REMARK                         _______ _______ _______ _____ _____    ______ ____
ROOT
ATOM      1  N   UNL     1       3.910  58.919  21.533  0.00  0.00    +0.000 N 
ATOM      2  O   UNL     1       5.890  57.935  22.285  0.00  0.00    +0.000 OA
ATOM      3  C   UNL     1       4.832  57.892  21.665  0.00  0.00    +0.000 C 
ATOM      4  H   UNL     1       3.191  58.803  20.870  0.00  0.00    +0.000 HD
ENDROOT
BRANCH   3   9
ATOM      5  C   UNL     1       2.591  55.652  19.702  0.00  0.00    +0.000 C 
ATOM      6  C   UNL     1       3.239  54.622  20.637  0.00  0.00    +0.000 C 
ATOM      7  C   UNL     1       3.862  55.480  21.749  0.00  0.00    +0.000 C 
ATOM      8  N   UNL     1       3.376  56.899  19.843  0.00  0.00    +0.000 N 
ATOM      9  C   UNL     1       4.409  56.634  20.892  0.00  0.00    +0.000 C 
ATOM     10  C   UNL     1       2.555  55.186  18.249  0.00  0.00    +0.000 C 
ATOM     11  H   UNL     1       2.769  57.666  20.131  0.00  0.00    +0.000 HD
ATOM     12  H   UNL     1       3.808  57.164  18.958  0.00  0.00    +0.000 HD
BRANCH   6  15
ATOM     13  O   UNL     1       2.881  52.501  21.676  0.00  0.00    +0.000 OA
ATOM     14  C   UNL     1       0.863  53.580  21.021  0.00  0.00    +0.000 C 
ATOM     15  C   UNL     1       2.362  53.487  21.144  0.00  0.00    +0.000 C 
ENDBRANCH   6  15
BRANCH   7  17
ATOM     16  C   UNL     1       2.976  55.439  24.166  0.00  0.00    +0.000 C 
ATOM     17  C   UNL     1       2.890  55.788  22.876  0.00  0.00    +0.000 C 
ENDBRANCH   7  17
ENDBRANCH   3   9
BRANCH   1  18
ATOM     18  C   UNL     1       3.924  60.119  22.280  0.00  0.00    +0.000 A 
ATOM     19  C   UNL     1       3.487  61.562  24.164  0.00  0.00    +0.000 A 
ATOM     20  C   UNL     1       4.034  62.652  23.482  0.00  0.00    +0.000 A 
ATOM     21  C   UNL     1       4.519  61.219  21.628  0.00  0.00    +0.000 A 
ATOM     22  C   UNL     1       4.570  62.480  22.213  0.00  0.00    +0.000 A 
ATOM     23  C   UNL     1       3.441  60.271  23.593  0.00  0.00    +0.000 A 
BRANCH  23  24
ATOM     24  C   UNL     1       2.988  59.099  24.472  0.00  0.00    +0.000 C 
ATOM     25  C   UNL     1       1.471  59.129  24.706  0.00  0.00    +0.000 C 
BRANCH  24  26
ATOM     26  C   UNL     1       3.809  59.027  25.792  0.00  0.00    +0.000 C 
BRANCH  26  27
ATOM     27  O   UNL     1       3.325  57.975  26.637  0.00  0.00    +0.000 OA
ATOM     28  H   UNL     1       3.930  57.857  27.386  0.00  0.00    +0.000 HD
ENDBRANCH  26  27
BRANCH  26  29
ATOM     29  C   UNL     1       5.314  58.780  25.587  0.00  0.00    +0.000 C 
ATOM     30  C   UNL     1       5.735  57.326  25.737  0.00  0.00    +0.000 C 
ENDBRANCH  26  29
ENDBRANCH  24  26
ENDBRANCH  23  24
BRANCH  21  31
ATOM     31  O   UNL     1       5.039  61.026  20.368  0.00  0.00    +0.000 OA
ATOM     32  H   UNL     1       5.960  60.902  20.256  0.00  0.00    +0.000 HD
ENDBRANCH  21  31
ENDBRANCH   1  18
TORSDOF 9
ENDMDL

MODEL 67
REMARK VINA RESULT:      -7.0      0.000      0.000
REMARK  Name = 
REMARK  15 active torsions:
REMARK  status: ('A' for Active; 'I' for Inactive)
REMARK    1  A    between atoms: C_1  and  C_12
REMARK    2  A    between atoms: C_2  and  C_10
REMARK    3  A    between atoms: C_2  and  C_23
REMARK    4  A    between atoms: C_3  and  C_16
REMARK    5  A    between atoms: N_4  and  C_15
REMARK    6  A    between atoms: C_8  and  C_21
REMARK    7  A    between atoms: C_9  and  C_18
REMARK    8  A    between atoms: C_9  and  C_27
REMARK    9  A    between atoms: N_11  and  C_18
REMARK   10  A    between atoms: C_13  and  O_20
REMARK   11  A    between atoms: C_14  and  C_21
REMARK   12  A    between atoms: C_22  and  C_27
REMARK   13  A    between atoms: C_24  and  O_25
REMARK   14  A    between atoms: O_25  and  O_26
REMARK   15  A    between atoms: O_26  and  C_27
REMARK                            x       y       z     vdW  Elec       q    Type
REMARK                         _______ _______ _______ _____ _____    ______ ____
ROOT
ATOM      1  N   UNL     1       5.436  58.716  22.104  0.00  0.00    +0.000 N 
ATOM      2  C   UNL     1       4.642  57.702  21.609  0.00  0.00    +0.000 C 
ATOM      3  O   UNL     1       3.973  57.745  20.577  0.00  0.00    +0.000 OA
ATOM      4  H   UNL     1       5.873  58.536  22.967  0.00  0.00    +0.000 HD
ENDROOT
BRANCH   2   6
ATOM      5  C   UNL     1       4.657  57.161  24.782  0.00  0.00    +0.000 C 
ATOM      6  C   UNL     1       4.610  56.454  22.532  0.00  0.00    +0.000 C 
ATOM      7  C   UNL     1       3.219  56.187  23.140  0.00  0.00    +0.000 C 
ATOM      8  C   UNL     1       5.378  57.051  26.118  0.00  0.00    +0.000 C 
ATOM      9  N   UNL     1       5.511  56.662  23.697  0.00  0.00    +0.000 N 
ATOM     10  C   UNL     1       3.449  56.242  24.661  0.00  0.00    +0.000 C 
ATOM     11  H   UNL     1       5.951  55.783  23.968  0.00  0.00    +0.000 HD
ATOM     12  H   UNL     1       6.260  57.320  23.478  0.00  0.00    +0.000 HD
BRANCH  10  13
ATOM     13  C   UNL     1       2.254  56.798  25.417  0.00  0.00    +0.000 C 
ATOM     14  O   UNL     1       1.470  56.062  26.016  0.00  0.00    +0.000 OA
BRANCH  13  16
ATOM     15  F   UNL     1       0.979  58.698  24.692  0.00  0.00    +0.000 F 
ATOM     16  C   UNL     1       2.089  58.303  25.376  0.00  0.00    +0.000 C 
ENDBRANCH  13  16
ENDBRANCH  10  13
BRANCH   7  18
ATOM     17  C   UNL     1       3.136  54.241  21.412  0.00  0.00    +0.000 C 
ATOM     18  C   UNL     1       2.541  54.893  22.654  0.00  0.00    +0.000 C 
ENDBRANCH   7  18
ENDBRANCH   2   6
BRANCH   1  22
ATOM     19  C   UNL     1       6.095  62.575  20.551  0.00  0.00    +0.000 A 
ATOM     20  C   UNL     1       6.549  60.191  20.447  0.00  0.00    +0.000 A 
ATOM     21  C   UNL     1       5.054  61.077  22.118  0.00  0.00    +0.000 A 
ATOM     22  C   UNL     1       5.700  59.977  21.531  0.00  0.00    +0.000 A 
ATOM     23  C   UNL     1       6.734  61.485  19.952  0.00  0.00    +0.000 A 
ATOM     24  C   UNL     1       5.246  62.371  21.639  0.00  0.00    +0.000 A 
BRANCH  21  25
ATOM     25  O   UNL     1       4.225  60.846  23.188  0.00  0.00    +0.000 OA
ATOM     26  H   UNL     1       3.895  59.983  23.347  0.00  0.00    +0.000 HD
ENDBRANCH  21  25
BRANCH  23  27
ATOM     27  O   UNL     1       7.602  61.617  18.892  0.00  0.00    +0.000 OA
BRANCH  27  28
ATOM     28  O   UNL     1       7.665  60.333  18.197  0.00  0.00    +0.000 OA
BRANCH  28  30
ATOM     29  C   UNL     1       8.683  61.757  16.540  0.00  0.00    +0.000 C 
ATOM     30  C   UNL     1       8.762  60.429  17.279  0.00  0.00    +0.000 C 
BRANCH  30  31
ATOM     31  C   UNL     1       8.740  59.192  16.372  0.00  0.00    +0.000 C 
BRANCH  31  32
ATOM     32  C   UNL     1       7.362  58.692  15.928  0.00  0.00    +0.000 C 
BRANCH  32  33
ATOM     33  N   UNL     1       6.893  57.553  16.710  0.00  0.00    +0.000 N 
ATOM     34  H   UNL     1       7.111  57.704  17.695  0.00  0.00    +0.000 HD
ATOM     35  H   UNL     1       7.356  56.703  16.386  0.00  0.00    +0.000 HD
ATOM     36  H   UNL     1       5.884  57.454  16.597  0.00  0.00    +0.000 HD
ENDBRANCH  32  33
ENDBRANCH  31  32
ENDBRANCH  30  31
ENDBRANCH  28  30
ENDBRANCH  27  28
ENDBRANCH  23  27
ENDBRANCH   1  22
TORSDOF 12
ENDMDL

MODEL 68
REMARK VINA RESULT:      -6.4      0.000      0.000
REMARK  Name = 
REMARK  16 active torsions:
REMARK  status: ('A' for Active; 'I' for Inactive)
REMARK    1  A    between atoms: C_2  and  C_18
REMARK    2  A    between atoms: C_3  and  C_9
REMARK    3  A    between atoms: C_3  and  C_15
REMARK    4  A    between atoms: C_3  and  O_19
REMARK    5  A    between atoms: C_4  and  C_22
REMARK    6  A    between atoms: C_4  and  C_26
REMARK    7  A    between atoms: C_8  and  N_12
REMARK    8  A    between atoms: C_8  and  C_25
REMARK    9  A    between atoms: C_9  and  C_23
REMARK   10  A    between atoms: O_11  and  C_22
REMARK   11  A    between atoms: O_13  and  O_20
REMARK   12  A    between atoms: C_14  and  C_16
REMARK   13  A    between atoms: C_14  and  C_17
REMARK   14  A    between atoms: C_14  and  O_20
REMARK   15  A    between atoms: C_16  and  C_21
REMARK   16  A    between atoms: C_21  and  C_24
REMARK                            x       y       z     vdW  Elec       q    Type
REMARK                         _______ _______ _______ _____ _____    ______ ____
ROOT
ATOM      1  C   UNL     1       6.031  60.269  27.240  0.00  0.00    +0.000 C 
ATOM      2  N   UNL     1       5.387  61.070  26.200  0.00  0.00    +0.000 N 
ATOM      3  C   UNL     1       5.079  60.137  25.093  0.00  0.00    +0.000 C 
ATOM      4  C   UNL     1       6.072  60.987  28.583  0.00  0.00    +0.000 C 
ATOM      5  C   UNL     1       4.759  58.790  25.779  0.00  0.00    +0.000 C 
ATOM      6  C   UNL     1       5.333  58.911  27.202  0.00  0.00    +0.000 C 
ATOM      7  H   UNL     1       6.016  61.805  25.879  0.00  0.00    +0.000 HD
ATOM      8  H   UNL     1       4.543  61.525  26.549  0.00  0.00    +0.000 HD
ENDROOT
BRANCH   6   9
ATOM      9  C   UNL     1       4.292  58.690  28.292  0.00  0.00    +0.000 C 
ATOM     10  O   UNL     1       4.622  58.187  29.373  0.00  0.00    +0.000 OA
BRANCH   9  11
ATOM     11  C   UNL     1       2.841  59.103  28.058  0.00  0.00    +0.000 C 
BRANCH  11  12
ATOM     12  O   UNL     1       2.734  60.521  27.976  0.00  0.00    +0.000 OA
ATOM     13  H   UNL     1       3.617  60.917  28.047  0.00  0.00    +0.000 HD
ENDBRANCH  11  12
ENDBRANCH   9  11
ENDBRANCH   6   9
BRANCH   3  14
ATOM     14  C   UNL     1       3.912  60.726  24.256  0.00  0.00    +0.000 C 
BRANCH  14  15
ATOM     15  O   UNL     1       2.743  60.783  25.094  0.00  0.00    +0.000 OA
ATOM     16  H   UNL     1       2.667  61.667  25.484  0.00  0.00    +0.000 HD
ENDBRANCH  14  15
BRANCH  14  17
ATOM     17  C   UNL     1       3.615  59.905  22.992  0.00  0.00    +0.000 C 
BRANCH  17  21
ATOM     18  C   UNL     1       6.345  58.813  20.558  0.00  0.00    +0.000 A 
ATOM     19  C   UNL     1       5.276  61.180  21.570  0.00  0.00    +0.000 A 
ATOM     20  C   UNL     1       6.326  61.222  20.651  0.00  0.00    +0.000 A 
ATOM     21  C   UNL     1       4.750  59.953  21.992  0.00  0.00    +0.000 A 
ATOM     22  C   UNL     1       6.871  60.038  20.137  0.00  0.00    +0.000 A 
ATOM     23  C   UNL     1       5.296  58.770  21.480  0.00  0.00    +0.000 A 
BRANCH  22  24
ATOM     24  C   UNL     1       8.012  60.088  19.149  0.00  0.00    +0.000 C 
BRANCH  24  25
ATOM     25  C   UNL     1       7.905  61.209  18.105  0.00  0.00    +0.000 C 
BRANCH  25  26
ATOM     26  C   UNL     1       8.129  60.737  16.658  0.00  0.00    +0.000 C 
ATOM     27  C   UNL     1       8.217  59.215  16.564  0.00  0.00    +0.000 C 
BRANCH  26  28
ATOM     28  O   UNL     1       7.148  61.232  15.739  0.00  0.00    +0.000 OA
BRANCH  28  29
ATOM     29  O   UNL     1       7.824  62.127  14.810  0.00  0.00    +0.000 OA
ATOM     30  H   UNL     1       7.224  62.349  14.080  0.00  0.00    +0.000 HD
ENDBRANCH  28  29
ENDBRANCH  26  28
ENDBRANCH  25  26
ENDBRANCH  24  25
ENDBRANCH  22  24
ENDBRANCH  17  21
ENDBRANCH  14  17
ENDBRANCH   3  14
BRANCH   5  31
ATOM     31  C   UNL     1       5.363  57.602  25.012  0.00  0.00    +0.000 C 
BRANCH  31  32
ATOM     32  N   UNL     1       6.450  56.991  25.769  0.00  0.00    +0.000 N 
ATOM     33  H   UNL     1       6.304  57.154  26.765  0.00  0.00    +0.000 HD
ATOM     34  H   UNL     1       7.338  57.404  25.482  0.00  0.00    +0.000 HD
ATOM     35  H   UNL     1       6.468  55.987  25.588  0.00  0.00    +0.000 HD
ENDBRANCH  31  32
ENDBRANCH   5  31
TORSDOF 14
ENDMDL

MODEL 69
REMARK VINA RESULT:      -7.8      0.000      0.000
REMARK  Name = 
REMARK  13 active torsions:
REMARK  status: ('A' for Active; 'I' for Inactive)
REMARK    1  A    between atoms: O_1  and  C_6
REMARK    2  A    between atoms: C_2  and  O_16
REMARK    3  A    between atoms: C_4  and  C_6
REMARK    4  A    between atoms: C_5  and  N_25
REMARK    5  A    between atoms: C_6  and  C_13
REMARK    6  A    between atoms: C_7  and  C_14
REMARK    7  A    between atoms: C_9  and  O_18
REMARK    8  A    between atoms: C_9  and  C_19
REMARK    9  A    between atoms: C_9  and  N_25
REMARK   10  A    between atoms: C_10  and  C_15
REMARK   11  A    between atoms: C_10  and  N_25
REMARK   12  A    between atoms: C_14  and  C_26
REMARK   13  A    between atoms: C_20  and  O_22
REMARK                            x       y       z     vdW  Elec       q    Type
REMARK                         _______ _______ _______ _____ _____    ______ ____
ROOT
ATOM      1  C   UNL     1       3.927  57.900  23.412  0.00  0.00    +0.000 C 
ENDROOT
BRANCH   1   6
ATOM      2  C   UNL     1       5.906  61.707  20.632  0.00  0.00    +0.000 C 
ATOM      3  C   UNL     1       7.401  59.182  20.103  0.00  0.00    +0.000 C 
ATOM      4  C   UNL     1       4.193  60.112  21.859  0.00  0.00    +0.000 C 
ATOM      5  C   UNL     1       5.931  59.223  20.496  0.00  0.00    +0.000 C 
ATOM      6  C   UNL     1       4.179  58.559  22.039  0.00  0.00    +0.000 C 
ATOM      7  C   UNL     1       7.384  61.724  20.178  0.00  0.00    +0.000 C 
ATOM      8  C   UNL     1       5.409  58.018  21.267  0.00  0.00    +0.000 C 
ATOM      9  C   UNL     1       7.775  60.478  19.380  0.00  0.00    +0.000 C 
ATOM     10  C   UNL     1       5.631  60.419  21.413  0.00  0.00    +0.000 C 
BRANCH   4  11
ATOM     11  C   UNL     1       3.534  60.990  22.933  0.00  0.00    +0.000 C 
ATOM     12  C   UNL     1       4.416  61.625  23.995  0.00  0.00    +0.000 C 
ENDBRANCH   4  11
BRANCH   2  13
ATOM     13  O   UNL     1       5.692  62.876  21.425  0.00  0.00    +0.000 OA
ATOM     14  H   UNL     1       6.455  63.016  22.006  0.00  0.00    +0.000 HD
ENDBRANCH   2  13
BRANCH   7  15
ATOM     15  O   UNL     1       7.614  62.885  19.376  0.00  0.00    +0.000 OA
ATOM     16  H   UNL     1       6.844  63.473  19.431  0.00  0.00    +0.000 HD
ENDBRANCH   7  15
ENDBRANCH   1   6
BRANCH   1  17
ATOM     17  C   UNL     1       4.971  57.818  24.510  0.00  0.00    +0.000 A 
ATOM     18  C   UNL     1       5.768  58.804  26.659  0.00  0.00    +0.000 A 
ATOM     19  C   UNL     1       6.752  57.805  26.675  0.00  0.00    +0.000 A 
ATOM     20  C   UNL     1       5.967  56.849  24.593  0.00  0.00    +0.000 A 
ATOM     21  C   UNL     1       6.854  56.845  25.665  0.00  0.00    +0.000 A 
ATOM     22  C   UNL     1       4.887  58.771  25.560  0.00  0.00    +0.000 A 
BRANCH  18  23
ATOM     23  N   UNL     1       5.667  59.755  27.686  0.00  0.00    +0.000 N 
BRANCH  23  24
ATOM     24  C   UNL     1       6.108  61.133  27.468  0.00  0.00    +0.000 C 
ATOM     25  C   UNL     1       5.021  62.176  27.692  0.00  0.00    +0.000 C 
BRANCH  24  26
ATOM     26  O   UNL     1       7.184  61.388  28.345  0.00  0.00    +0.000 OA
ATOM     27  H   UNL     1       7.835  60.672  28.275  0.00  0.00    +0.000 HD
ENDBRANCH  24  26
ENDBRANCH  23  24
BRANCH  23  28
ATOM     28  C   UNL     1       5.573  59.275  29.078  0.00  0.00    +0.000 C 
ATOM     29  C   UNL     1       4.142  58.909  29.450  0.00  0.00    +0.000 C 
ENDBRANCH  23  28
ENDBRANCH  18  23
ENDBRANCH   1  17
BRANCH   1  30
ATOM     30  O   UNL     1       3.474  56.560  23.147  0.00  0.00    +0.000 OA
ATOM     31  H   UNL     1       3.787  55.968  23.848  0.00  0.00    +0.000 HD
ENDBRANCH   1  30
TORSDOF 10
ENDMDL

MODEL 70
REMARK VINA RESULT:      -8.1      0.000      0.000
REMARK  Name = 
REMARK  11 active torsions:
REMARK  status: ('A' for Active; 'I' for Inactive)
REMARK    1  A    between atoms: N_1  and  C_28
REMARK    2  A    between atoms: C_4  and  C_21
REMARK    3  A    between atoms: C_5  and  O_10
REMARK    4  A    between atoms: C_6  and  O_18
REMARK    5  A    between atoms: C_8  and  C_19
REMARK    6  A    between atoms: C_8  and  C_27
REMARK    7  A    between atoms: O_9  and  C_20
REMARK    8  A    between atoms: O_10  and  C_24
REMARK    9  A    between atoms: C_14  and  C_24
REMARK   10  A    between atoms: C_15  and  C_20
REMARK   11  A    between atoms: C_20  and  C_24
REMARK                            x       y       z     vdW  Elec       q    Type
REMARK                         _______ _______ _______ _____ _____    ______ ____
ROOT
ATOM      1  N   UNL     1       5.394  59.335  22.111  0.00  0.00    +0.000 N 
ATOM      2  O   UNL     1       3.872  58.216  20.760  0.00  0.00    +0.000 OA
ATOM      3  C   UNL     1       4.362  58.449  21.860  0.00  0.00    +0.000 C 
ATOM      4  H   UNL     1       5.673  59.413  23.052  0.00  0.00    +0.000 HD
ENDROOT
BRANCH   3   6
ATOM      5  C   UNL     1       5.045  59.054  26.591  0.00  0.00    +0.000 C 
ATOM      6  C   UNL     1       3.885  57.738  23.138  0.00  0.00    +0.000 C 
ATOM      7  C   UNL     1       5.496  57.267  24.834  0.00  0.00    +0.000 C 
ATOM      8  C   UNL     1       6.323  58.550  27.213  0.00  0.00    +0.000 C 
ATOM      9  C   UNL     1       4.717  58.422  25.254  0.00  0.00    +0.000 C 
ATOM     10  C   UNL     1       6.580  56.845  25.493  0.00  0.00    +0.000 C 
ATOM     11  S   UNL     1       4.122  60.194  27.427  0.00  0.00    +0.000 S 
ATOM     12  C   UNL     1       7.014  57.532  26.682  0.00  0.00    +0.000 C 
ATOM     13  C   UNL     1       4.908  56.688  23.589  0.00  0.00    +0.000 C 
ATOM     14  C   UNL     1       3.794  58.704  24.312  0.00  0.00    +0.000 C 
BRANCH  14  15
ATOM     15  C   UNL     1       2.766  59.799  24.256  0.00  0.00    +0.000 C 
ATOM     16  C   UNL     1       1.378  59.300  24.632  0.00  0.00    +0.000 C 
ENDBRANCH  14  15
ENDBRANCH   3   6
BRANCH   1  22
ATOM     17  C   UNL     1       7.542  60.524  19.282  0.00  0.00    +0.000 A 
ATOM     18  C   UNL     1       6.000  61.527  21.374  0.00  0.00    +0.000 A 
ATOM     19  C   UNL     1       6.658  62.414  20.530  0.00  0.00    +0.000 A 
ATOM     20  C   UNL     1       7.429  61.904  19.485  0.00  0.00    +0.000 A 
ATOM     21  C   UNL     1       6.881  59.645  20.145  0.00  0.00    +0.000 A 
ATOM     22  C   UNL     1       6.101  60.140  21.193  0.00  0.00    +0.000 A 
BRANCH  18  23
ATOM     23  O   UNL     1       5.233  61.992  22.414  0.00  0.00    +0.000 OA
ATOM     24  H   UNL     1       5.303  62.885  22.685  0.00  0.00    +0.000 HD
ENDBRANCH  18  23
BRANCH  17  25
ATOM     25  O   UNL     1       8.337  60.178  18.225  0.00  0.00    +0.000 OA
BRANCH  25  27
ATOM     26  C   UNL     1       8.691  58.707  16.341  0.00  0.00    +0.000 C 
ATOM     27  C   UNL     1       7.727  59.679  17.022  0.00  0.00    +0.000 C 
BRANCH  27  29
ATOM     28  C   UNL     1       8.710  61.707  15.829  0.00  0.00    +0.000 C 
ATOM     29  C   UNL     1       7.448  60.897  16.109  0.00  0.00    +0.000 C 
BRANCH  29  30
ATOM     30  O   UNL     1       6.910  60.475  14.852  0.00  0.00    +0.000 OA
ATOM     31  H   UNL     1       7.083  61.155  14.182  0.00  0.00    +0.000 HD
ENDBRANCH  29  30
ENDBRANCH  27  29
ENDBRANCH  25  27
ENDBRANCH  17  25
ENDBRANCH   1  22
TORSDOF 8
ENDMDL

MODEL 71
ROOT
ATOM      1  C   UNL     1       0.000   0.000   0.000  0.00  0.00    +0.000 C
ENDROOT
TORSDOF 0
ENDMDL

MODEL 72
ROOT
ATOM      1  C   UNL     1       0.000   0.000   0.000  0.00  0.00    +0.000 C
ENDROOT
TORSDOF 0
ENDMDL

MODEL 73
REMARK VINA RESULT:      -6.5      0.000      0.000
REMARK  Name = 
REMARK  18 active torsions:
REMARK  status: ('A' for Active; 'I' for Inactive)
REMARK    1  A    between atoms: C_1  and  C_2
REMARK    2  A    between atoms: C_1  and  O_5
REMARK    3  A    between atoms: C_2  and  O_15
REMARK    4  A    between atoms: N_3  and  C_8
REMARK    5  A    between atoms: N_3  and  C_18
REMARK    6  A    between atoms: S_4  and  N_19
REMARK    7  A    between atoms: S_4  and  O_20
REMARK    8  A    between atoms: S_4  and  O_21
REMARK    9  A    between atoms: S_4  and  C_28
REMARK   10  A    between atoms: C_7  and  C_24
REMARK   11  A    between atoms: C_9  and  C_16
REMARK   12  A    between atoms: C_10  and  N_19
REMARK   13  A    between atoms: C_10  and  C_25
REMARK   14  A    between atoms: C_11  and  O_22
REMARK   15  A    between atoms: O_13  and  C_18
REMARK   16  A    between atoms: C_14  and  C_17
REMARK   17  A    between atoms: C_18  and  C_26
REMARK   18  A    between atoms: N_19  and  C_24
REMARK                            x       y       z     vdW  Elec       q    Type
REMARK                         _______ _______ _______ _____ _____    ______ ____
ROOT
ATOM      1  N   UNL     1       4.327  55.799  20.267  0.00  0.00    +0.000 N 
ATOM      2  H   UNL     1       5.091  55.196  20.121  0.00  0.00    +0.000 HD
ENDROOT
BRANCH   1   4
ATOM      3  C   UNL     1       4.384  57.561  23.527  0.00  0.00    +0.000 A 
ATOM      4  C   UNL     1       4.435  56.882  21.165  0.00  0.00    +0.000 A 
ATOM      5  C   UNL     1       4.231  56.604  22.530  0.00  0.00    +0.000 A 
ATOM      6  C   UNL     1       4.776  58.847  23.170  0.00  0.00    +0.000 A 
ATOM      7  C   UNL     1       4.870  58.164  20.830  0.00  0.00    +0.000 A 
ATOM      8  C   UNL     1       5.015  59.133  21.828  0.00  0.00    +0.000 A 
BRANCH   5   9
ATOM      9  O   UNL     1       3.853  55.337  22.895  0.00  0.00    +0.000 OA
ATOM     10  H   UNL     1       2.969  55.169  23.157  0.00  0.00    +0.000 HD
ENDBRANCH   5   9
BRANCH   8  11
ATOM     11  S   UNL     1       5.499  60.731  21.371  0.00  0.00    +0.000 S 
BRANCH  11  12
ATOM     12  O   UNL     1       5.776  61.593  22.693  0.00  0.00    +0.000 OA
ATOM     13  H   UNL     1       5.043  62.212  22.836  0.00  0.00    +0.000 HD
ENDBRANCH  11  12
BRANCH  11  14
ATOM     14  O   UNL     1       4.274  61.499  20.680  0.00  0.00    +0.000 OA
ATOM     15  H   UNL     1       3.953  62.195  21.274  0.00  0.00    +0.000 HD
ENDBRANCH  11  14
BRANCH  11  16
ATOM     16  N   UNL     1       6.806  60.843  20.326  0.00  0.00    +0.000 NA
BRANCH  16  18
ATOM     17  C   UNL     1       7.369  63.225  19.685  0.00  0.00    +0.000 C 
ATOM     18  C   UNL     1       7.746  61.967  20.460  0.00  0.00    +0.000 C 
ENDBRANCH  16  18
BRANCH  16  19
ATOM     19  C   UNL     1       7.415  59.621  19.781  0.00  0.00    +0.000 C 
ATOM     20  C   UNL     1       7.893  59.722  18.338  0.00  0.00    +0.000 C 
ENDBRANCH  16  19
ENDBRANCH  11  16
ENDBRANCH   8  11
ENDBRANCH   1   4
BRANCH   1  21
ATOM     21  C   UNL     1       3.072  55.581  19.557  0.00  0.00    +0.000 C 
BRANCH  21  27
ATOM     22  C   UNL     1       0.977  52.797  21.160  0.00  0.00    +0.000 C 
ATOM     23  C   UNL     1       1.058  54.197  20.523  0.00  0.00    +0.000 C 
ATOM     24  C   UNL     1       2.413  52.690  21.728  0.00  0.00    +0.000 C 
ATOM     25  C   UNL     1      -0.061  54.567  19.557  0.00  0.00    +0.000 C 
ATOM     26  C   UNL     1       2.932  51.296  22.047  0.00  0.00    +0.000 C 
ATOM     27  C   UNL     1       2.440  54.186  19.863  0.00  0.00    +0.000 C 
ATOM     28  N   UNL     1       3.309  53.360  20.753  0.00  0.00    +0.000 N 
ATOM     29  H   UNL     1       3.813  52.664  20.204  0.00  0.00    +0.000 HD
ATOM     30  H   UNL     1       4.000  53.939  21.230  0.00  0.00    +0.000 HD
BRANCH  22  31
ATOM     31  O   UNL     1       0.024  52.801  22.235  0.00  0.00    +0.000 OA
ATOM     32  H   UNL     1      -0.268  53.711  22.406  0.00  0.00    +0.000 HD
ENDBRANCH  22  31
BRANCH  22  33
ATOM     33  C   UNL     1       0.575  51.669  20.186  0.00  0.00    +0.000 C 
BRANCH  33  34
ATOM     34  O   UNL     1      -0.386  50.797  20.786  0.00  0.00    +0.000 OA
ATOM     35  H   UNL     1      -1.209  50.819  20.272  0.00  0.00    +0.000 HD
ENDBRANCH  33  34
ENDBRANCH  22  33
ENDBRANCH  21  27
BRANCH  21  36
ATOM     36  O   UNL     1       3.467  55.581  18.190  0.00  0.00    +0.000 OA
ATOM     37  H   UNL     1       4.381  55.895  18.118  0.00  0.00    +0.000 HD
ENDBRANCH  21  36
ENDBRANCH   1  21
TORSDOF 14
ENDMDL

MODEL 74
REMARK VINA RESULT:      -6.4      0.000      0.000
REMARK  Name = 
REMARK  7 active torsions:
REMARK  status: ('A' for Active; 'I' for Inactive)
REMARK    1  A    between atoms: C_1  and  C_29
REMARK    2  A    between atoms: C_4  and  C_21
REMARK    3  A    between atoms: N_5  and  C_15
REMARK    4  A    between atoms: C_12  and  C_18
REMARK    5  A    between atoms: C_12  and  C_19
REMARK    6  A    between atoms: C_15  and  C_25
REMARK    7  A    between atoms: C_18  and  C_22
REMARK                            x       y       z     vdW  Elec       q    Type
REMARK                         _______ _______ _______ _____ _____    ______ ____
ROOT
ATOM      1  C   UNL     1       2.634  60.344  28.369  0.00  0.00    +0.000 C 
ATOM      2  C   UNL     1       3.616  60.715  27.282  0.00  0.00    +0.000 C 
ATOM      3  S   UNL     1       2.301  56.354  27.373  0.00  0.00    +0.000 S 
ATOM      4  C   UNL     1       2.425  58.146  27.174  0.00  0.00    +0.000 C 
ATOM      5  C   UNL     1       4.501  59.593  26.713  0.00  0.00    +0.000 C 
ATOM      6  C   UNL     1       2.520  58.834  28.537  0.00  0.00    +0.000 C 
ATOM      7  O   UNL     1       3.522  55.967  26.308  0.00  0.00    +0.000 OA
ATOM      8  O   UNL     1       3.708  61.878  26.883  0.00  0.00    +0.000 OA
ATOM      9  O   UNL     1       2.249  58.491  24.312  0.00  0.00    +0.000 OA
ATOM     10  C   UNL     1       4.206  59.933  24.395  0.00  0.00    +0.000 C 
ATOM     11  C   UNL     1       4.436  57.058  26.092  0.00  0.00    +0.000 C 
ATOM     12  C   UNL     1       3.657  58.379  26.299  0.00  0.00    +0.000 C 
ATOM     13  C   UNL     1       3.248  58.871  24.916  0.00  0.00    +0.000 C 
ATOM     14  N   UNL     1       5.194  60.056  25.497  0.00  0.00    +0.000 N 
ATOM     15  H   UNL     1       6.010  59.473  25.308  0.00  0.00    +0.000 HD
ATOM     16  H   UNL     1       5.526  61.015  25.596  0.00  0.00    +0.000 HD
ENDROOT
BRANCH  10  17
ATOM     17  C   UNL     1       4.806  59.538  23.054  0.00  0.00    +0.000 A 
ATOM     18  N   UNL     1       4.636  58.232  22.697  0.00  0.00    +0.000 NA
ATOM     19  C   UNL     1       5.814  58.630  20.653  0.00  0.00    +0.000 A 
ATOM     20  C   UNL     1       5.130  57.812  21.519  0.00  0.00    +0.000 A 
ATOM     21  C   UNL     1       5.450  60.468  22.215  0.00  0.00    +0.000 A 
ATOM     22  C   UNL     1       5.996  59.967  21.012  0.00  0.00    +0.000 A 
BRANCH  22  23
ATOM     23  C   UNL     1       6.777  60.778  20.041  0.00  0.00    +0.000 C 
ATOM     24  N   UNL     1       8.010  60.313  19.690  0.00  0.00    +0.000 N 
ATOM     25  O   UNL     1       6.307  61.788  19.533  0.00  0.00    +0.000 OA
ATOM     26  H   UNL     1       8.562  60.818  19.050  0.00  0.00    +0.000 HD
ATOM     27  H   UNL     1       8.348  59.474  20.076  0.00  0.00    +0.000 HD
ENDBRANCH  22  23
BRANCH  21  28
ATOM     28  C   UNL     1       5.526  61.933  22.562  0.00  0.00    +0.000 C 
BRANCH  28  29
ATOM     29  N   UNL     1       4.457  62.691  21.911  0.00  0.00    +0.000 N 
ATOM     30  H   UNL     1       4.847  63.239  21.145  0.00  0.00    +0.000 HD
ATOM     31  H   UNL     1       4.022  63.316  22.589  0.00  0.00    +0.000 HD
ATOM     32  H   UNL     1       3.757  62.045  21.545  0.00  0.00    +0.000 HD
ENDBRANCH  28  29
ENDBRANCH  21  28
ENDBRANCH  10  17
BRANCH  11  33
ATOM     33  C   UNL     1       5.723  56.827  26.900  0.00  0.00    +0.000 C 
ATOM     34  C   UNL     1       6.906  56.841  26.254  0.00  0.00    +0.000 C 
BRANCH  33  35
ATOM     35  C   UNL     1       5.601  56.551  28.387  0.00  0.00    +0.000 C 
ATOM     36  C   UNL     1       5.890  55.130  28.864  0.00  0.00    +0.000 C 
ENDBRANCH  33  35
ENDBRANCH  11  33
TORSDOF 6
ENDMDL

MODEL 75
REMARK VINA RESULT:      -7.3      0.000      0.000
REMARK  Name = 
REMARK  13 active torsions:
REMARK  status: ('A' for Active; 'I' for Inactive)
REMARK    1  A    between atoms: C_1  and  C_25
REMARK    2  A    between atoms: N_2  and  C_22
REMARK    3  A    between atoms: C_3  and  C_26
REMARK    4  A    between atoms: C_5  and  C_9
REMARK    5  A    between atoms: C_6  and  C_20
REMARK    6  A    between atoms: C_7  and  C_21
REMARK    7  A    between atoms: C_9  and  C_19
REMARK    8  A    between atoms: C_10  and  O_16
REMARK    9  A    between atoms: C_11  and  C_17
REMARK   10  A    between atoms: C_12  and  O_15
REMARK   11  A    between atoms: C_13  and  O_18
REMARK   12  A    between atoms: C_17  and  C_20
REMARK   13  A    between atoms: O_18  and  C_20
REMARK                            x       y       z     vdW  Elec       q    Type
REMARK                         _______ _______ _______ _____ _____    ______ ____
ROOT
ATOM      1  C   UNL     1       4.256  59.257  22.672  0.00  0.00    +0.000 C 
ATOM      2  N   UNL     1       5.266  60.189  22.572  0.00  0.00    +0.000 N 
ATOM      3  O   UNL     1       3.782  58.587  21.758  0.00  0.00    +0.000 OA
ATOM      4  H   UNL     1       5.512  60.638  23.413  0.00  0.00    +0.000 HD
ENDROOT
BRANCH   1  10
ATOM      5  C   UNL     1       4.459  59.519  26.425  0.00  0.00    +0.000 C 
ATOM      6  C   UNL     1       4.948  58.885  25.096  0.00  0.00    +0.000 C 
ATOM      7  C   UNL     1       2.685  61.410  26.779  0.00  0.00    +0.000 C 
ATOM      8  N   UNL     1       3.108  60.296  24.618  0.00  0.00    +0.000 N 
ATOM      9  C   UNL     1       3.077  60.119  26.074  0.00  0.00    +0.000 C 
ATOM     10  C   UNL     1       3.775  59.066  24.122  0.00  0.00    +0.000 C 
ATOM     11  H   UNL     1       3.645  61.126  24.365  0.00  0.00    +0.000 HD
ATOM     12  H   UNL     1       2.179  60.426  24.219  0.00  0.00    +0.000 HD
BRANCH   6  13
ATOM     13  C   UNL     1       5.345  57.405  25.221  0.00  0.00    +0.000 C 
ATOM     14  C   UNL     1       6.644  57.195  25.984  0.00  0.00    +0.000 C 
ENDBRANCH   6  13
BRANCH   5  16
ATOM     15  C   UNL     1       6.170  60.351  28.072  0.00  0.00    +0.000 C 
ATOM     16  C   UNL     1       5.475  60.509  26.944  0.00  0.00    +0.000 C 
BRANCH  15  17
ATOM     17  O   UNL     1       7.072  61.284  28.493  0.00  0.00    +0.000 OA
ATOM     18  H   UNL     1       6.819  62.184  28.560  0.00  0.00    +0.000 HD
ENDBRANCH  15  17
ENDBRANCH   5  16
ENDBRANCH   1  10
BRANCH   2  22
ATOM     19  C   UNL     1       6.624  59.706  20.565  0.00  0.00    +0.000 A 
ATOM     20  C   UNL     1       6.090  61.970  21.199  0.00  0.00    +0.000 A 
ATOM     21  C   UNL     1       7.305  60.199  19.450  0.00  0.00    +0.000 A 
ATOM     22  C   UNL     1       5.993  60.590  21.438  0.00  0.00    +0.000 A 
ATOM     23  C   UNL     1       6.805  62.467  20.112  0.00  0.00    +0.000 A 
ATOM     24  C   UNL     1       7.424  61.573  19.240  0.00  0.00    +0.000 A 
BRANCH  20  25
ATOM     25  O   UNL     1       5.470  62.829  22.071  0.00  0.00    +0.000 OA
ATOM     26  H   UNL     1       5.843  63.672  22.243  0.00  0.00    +0.000 HD
ENDBRANCH  20  25
BRANCH  21  27
ATOM     27  O   UNL     1       7.974  59.354  18.609  0.00  0.00    +0.000 OA
BRANCH  27  29
ATOM     28  C   UNL     1       7.654  58.479  16.304  0.00  0.00    +0.000 C 
ATOM     29  C   UNL     1       7.931  59.687  17.203  0.00  0.00    +0.000 C 
BRANCH  29  31
ATOM     30  C   UNL     1       8.767  61.799  16.029  0.00  0.00    +0.000 C 
ATOM     31  C   UNL     1       9.144  60.520  16.762  0.00  0.00    +0.000 C 
ENDBRANCH  29  31
ENDBRANCH  27  29
ENDBRANCH  21  27
ENDBRANCH   2  22
TORSDOF 9
ENDMDL

MODEL 76
REMARK VINA RESULT:      -6.7      0.000      0.000
REMARK  Name = 
REMARK  18 active torsions:
REMARK  status: ('A' for Active; 'I' for Inactive)
REMARK    1  A    between atoms: N_1  and  S_7
REMARK    2  A    between atoms: N_1  and  C_29
REMARK    3  A    between atoms: N_1  and  C_30
REMARK    4  A    between atoms: C_2  and  N_23
REMARK    5  A    between atoms: C_3  and  C_8
REMARK    6  A    between atoms: C_5  and  O_24
REMARK    7  A    between atoms: C_6  and  O_14
REMARK    8  A    between atoms: S_7  and  O_19
REMARK    9  A    between atoms: S_7  and  C_22
REMARK   10  A    between atoms: S_7  and  O_27
REMARK   11  A    between atoms: C_8  and  O_20
REMARK   12  A    between atoms: C_8  and  N_23
REMARK   13  A    between atoms: C_10  and  C_13
REMARK   14  A    between atoms: C_12  and  C_30
REMARK   15  A    between atoms: C_13  and  C_25
REMARK   16  A    between atoms: C_13  and  C_28
REMARK   17  A    between atoms: N_16  and  C_29
REMARK   18  A    between atoms: C_17  and  C_31
REMARK                            x       y       z     vdW  Elec       q    Type
REMARK                         _______ _______ _______ _____ _____    ______ ____
ROOT
ATOM      1  C   UNL     1       3.989  56.131  21.497  0.00  0.00    +0.000 A 
ATOM      2  C   UNL     1       3.045  55.489  18.918  0.00  0.00    +0.000 A 
ATOM      3  C   UNL     1       4.361  56.884  20.364  0.00  0.00    +0.000 A 
ATOM      4  C   UNL     1       3.160  55.023  21.305  0.00  0.00    +0.000 A 
ATOM      5  C   UNL     1       3.891  56.580  19.086  0.00  0.00    +0.000 A 
ATOM      6  C   UNL     1       2.692  54.720  20.025  0.00  0.00    +0.000 A 
ENDROOT
BRANCH   1   7
ATOM      7  N   UNL     1       4.567  56.467  22.742  0.00  0.00    +0.000 N 
ATOM      8  H   UNL     1       5.471  56.159  22.979  0.00  0.00    +0.000 HD
BRANCH   7   9
ATOM      9  C   UNL     1       3.795  57.274  23.656  0.00  0.00    +0.000 C 
BRANCH   9  10
ATOM     10  C   UNL     1       4.541  58.576  24.044  0.00  0.00    +0.000 C 
ATOM     11  C   UNL     1       3.371  62.576  26.087  0.00  0.00    +0.000 C 
ATOM     12  C   UNL     1       5.289  61.064  24.825  0.00  0.00    +0.000 C 
ATOM     13  C   UNL     1       4.809  58.731  25.629  0.00  0.00    +0.000 C 
ATOM     14  S   UNL     1       4.179  61.319  27.225  0.00  0.00    +0.000 S 
ATOM     15  C   UNL     1       4.653  62.069  22.620  0.00  0.00    +0.000 C 
ATOM     16  C   UNL     1       3.041  62.109  24.609  0.00  0.00    +0.000 C 
ATOM     17  C   UNL     1       4.581  60.215  25.885  0.00  0.00    +0.000 C 
ATOM     18  C   UNL     1       4.165  61.282  23.839  0.00  0.00    +0.000 C 
ATOM     19  C   UNL     1       3.705  59.816  23.403  0.00  0.00    +0.000 C 
BRANCH  13  20
ATOM     20  C   UNL     1       6.152  58.235  26.243  0.00  0.00    +0.000 C 
ATOM     21  C   UNL     1       6.714  56.918  25.707  0.00  0.00    +0.000 C 
ATOM     22  C   UNL     1       6.075  58.164  27.774  0.00  0.00    +0.000 C 
ENDBRANCH  13  20
BRANCH  11  23
ATOM     23  O   UNL     1       2.170  63.011  26.705  0.00  0.00    +0.000 OA
ATOM     24  H   UNL     1       2.369  63.360  27.587  0.00  0.00    +0.000 HD
ENDBRANCH  11  23
ENDBRANCH   9  10
BRANCH   9  25
ATOM     25  O   UNL     1       3.583  56.491  24.807  0.00  0.00    +0.000 OA
ATOM     26  H   UNL     1       3.865  55.579  24.635  0.00  0.00    +0.000 HD
ENDBRANCH   9  25
ENDBRANCH   7   9
ENDBRANCH   1   7
BRANCH   3  27
ATOM     27  O   UNL     1       5.187  57.964  20.563  0.00  0.00    +0.000 OA
ATOM     28  H   UNL     1       5.353  58.274  21.432  0.00  0.00    +0.000 HD
ENDBRANCH   3  27
BRANCH   6  29
ATOM     29  S   UNL     1       1.639  53.363  19.791  0.00  0.00    +0.000 S 
BRANCH  29  30
ATOM     30  O   UNL     1       0.553  53.348  20.972  0.00  0.00    +0.000 OA
ATOM     31  H   UNL     1      -0.322  53.155  20.603  0.00  0.00    +0.000 HD
ENDBRANCH  29  30
BRANCH  29  32
ATOM     32  O   UNL     1       0.756  53.566  18.470  0.00  0.00    +0.000 OA
ATOM     33  H   UNL     1       0.709  52.730  17.981  0.00  0.00    +0.000 HD
ENDBRANCH  29  32
BRANCH  29  34
ATOM     34  N   UNL     1       2.386  51.862  19.677  0.00  0.00    +0.000 NA
BRANCH  34  36
ATOM     35  C   UNL     1       4.327  50.461  20.500  0.00  0.00    +0.000 C 
ATOM     36  C   UNL     1       3.122  51.333  20.837  0.00  0.00    +0.000 C 
ENDBRANCH  34  36
BRANCH  34  37
ATOM     37  C   UNL     1       1.778  50.818  18.868  0.00  0.00    +0.000 C 
BRANCH  37  38
ATOM     38  N   UNL     1       0.374  50.693  19.205  0.00  0.00    +0.000 N 
ATOM     39  H   UNL     1      -0.194  51.083  18.452  0.00  0.00    +0.000 HD
ATOM     40  H   UNL     1       0.186  51.200  20.070  0.00  0.00    +0.000 HD
ATOM     41  H   UNL     1       0.140  49.708  19.331  0.00  0.00    +0.000 HD
ENDBRANCH  37  38
ENDBRANCH  34  37
ENDBRANCH  29  34
ENDBRANCH   6  29
TORSDOF 14
ENDMDL

MODEL 77
REMARK VINA RESULT:      -6.9      0.000      0.000
REMARK  Name = 
REMARK  15 active torsions:
REMARK  status: ('A' for Active; 'I' for Inactive)
REMARK    1  A    between atoms: C_1  and  C_17
REMARK    2  A    between atoms: N_3  and  C_25
REMARK    3  A    between atoms: O_4  and  C_6
REMARK    4  A    between atoms: O_4  and  C_15
REMARK    5  A    between atoms: C_5  and  N_23
REMARK    6  A    between atoms: O_7  and  N_11
REMARK    7  A    between atoms: O_7  and  O_22
REMARK    8  A    between atoms: C_9  and  N_11
REMARK    9  A    between atoms: C_9  and  C_26
REMARK   10  A    between atoms: C_10  and  C_28
REMARK   11  A    between atoms: N_11  and  C_20
REMARK   12  A    between atoms: O_13  and  C_15
REMARK   13  A    between atoms: C_14  and  C_21
REMARK   14  A    between atoms: C_16  and  C_20
REMARK   15  A    between atoms: C_19  and  O_22
REMARK                            x       y       z     vdW  Elec       q    Type
REMARK                         _______ _______ _______ _____ _____    ______ ____
ROOT
ATOM      1  C   UNL     1       6.082  59.383  20.642  0.00  0.00    +0.000 C 
ATOM      2  N   UNL     1       6.069  58.087  21.122  0.00  0.00    +0.000 N 
ATOM      3  O   UNL     1       5.147  60.180  20.674  0.00  0.00    +0.000 OA
ATOM      4  H   UNL     1       6.919  57.596  21.053  0.00  0.00    +0.000 HD
ENDROOT
BRANCH   1   9
ATOM      5  N   UNL     1       7.885  58.700  19.068  0.00  0.00    +0.000 N 
ATOM      6  C   UNL     1       8.023  60.712  17.856  0.00  0.00    +0.000 C 
ATOM      7  C   UNL     1       7.323  61.066  19.181  0.00  0.00    +0.000 C 
ATOM      8  C   UNL     1       7.669  59.227  17.715  0.00  0.00    +0.000 C 
ATOM      9  C   UNL     1       7.440  59.768  20.007  0.00  0.00    +0.000 C 
ATOM     10  C   UNL     1       8.528  58.479  16.708  0.00  0.00    +0.000 C 
ATOM     11  H   UNL     1       8.873  58.492  19.213  0.00  0.00    +0.000 HD
ATOM     12  H   UNL     1       7.367  57.835  19.217  0.00  0.00    +0.000 HD
BRANCH   7  14
ATOM     13  C   UNL     1       7.397  63.608  19.589  0.00  0.00    +0.000 C 
ATOM     14  C   UNL     1       7.854  62.362  19.764  0.00  0.00    +0.000 C 
ENDBRANCH   7  14
BRANCH   6  15
ATOM     15  O   UNL     1       7.465  61.497  16.802  0.00  0.00    +0.000 OA
BRANCH  15  16
ATOM     16  C   UNL     1       8.450  61.987  15.914  0.00  0.00    +0.000 C 
BRANCH  16  17
ATOM     17  O   UNL     1       7.820  62.310  14.694  0.00  0.00    +0.000 OA
ATOM     18  H   UNL     1       7.034  62.850  14.868  0.00  0.00    +0.000 HD
ENDBRANCH  16  17
ENDBRANCH  15  16
ENDBRANCH   6  15
ENDBRANCH   1   9
BRANCH   2  24
ATOM     19  C   UNL     1       4.556  57.813  22.970  0.00  0.00    +0.000 A 
ATOM     20  C   UNL     1       4.387  56.268  21.099  0.00  0.00    +0.000 A 
ATOM     21  C   UNL     1       3.029  55.937  23.075  0.00  0.00    +0.000 A 
ATOM     22  C   UNL     1       3.413  55.545  21.794  0.00  0.00    +0.000 A 
ATOM     23  C   UNL     1       3.611  57.057  23.669  0.00  0.00    +0.000 A 
ATOM     24  C   UNL     1       4.993  57.375  21.698  0.00  0.00    +0.000 A 
BRANCH  19  25
ATOM     25  N   UNL     1       5.147  58.941  23.588  0.00  0.00    +0.000 N 
ATOM     26  H   UNL     1       5.033  59.089  24.555  0.00  0.00    +0.000 HD
ATOM     27  H   UNL     1       5.671  59.578  23.051  0.00  0.00    +0.000 HD
ENDBRANCH  19  25
BRANCH  22  28
ATOM     28  O   UNL     1       2.765  54.444  21.281  0.00  0.00    +0.000 OA
BRANCH  28  29
ATOM     29  O   UNL     1       3.763  53.534  20.740  0.00  0.00    +0.000 OA
BRANCH  29  30
ATOM     30  N   UNL     1       3.127  52.380  20.122  0.00  0.00    +0.000 NA
BRANCH  30  31
ATOM     31  C   UNL     1       1.702  52.718  20.032  0.00  0.00    +0.000 C 
ATOM     32  C   UNL     1       0.718  51.718  20.637  0.00  0.00    +0.000 C 
ENDBRANCH  30  31
BRANCH  30  34
ATOM     33  C   UNL     1       4.223  50.153  20.300  0.00  0.00    +0.000 C 
ATOM     34  C   UNL     1       3.455  51.262  21.009  0.00  0.00    +0.000 C 
ENDBRANCH  30  34
ENDBRANCH  29  30
ENDBRANCH  28  29
ENDBRANCH  22  28
ENDBRANCH   2  24
TORSDOF 12
ENDMDL

MODEL 78
REMARK VINA RESULT:      -5.7      0.000      0.000
REMARK  Name = 
REMARK  21 active torsions:
REMARK  status: ('A' for Active; 'I' for Inactive)
REMARK    1  A    between atoms: C_1  and  C_4
REMARK    2  A    between atoms: C_1  and  O_12
REMARK    3  A    between atoms: C_1  and  C_20
REMARK    4  A    between atoms: C_2  and  C_4
REMARK    5  A    between atoms: C_2  and  O_22
REMARK    6  A    between atoms: C_3  and  C_14
REMARK    7  A    between atoms: C_4  and  C_21
REMARK    8  A    between atoms: C_5  and  C_24
REMARK    9  A    between atoms: C_7  and  C_24
REMARK   10  A    between atoms: C_8  and  C_15
REMARK   11  A    between atoms: C_8  and  O_17
REMARK   12  A    between atoms: C_8  and  N_27
REMARK   13  A    between atoms: O_9  and  C_19
REMARK   14  A    between atoms: O_10  and  O_17
REMARK   15  A    between atoms: C_11  and  C_16
REMARK   16  A    between atoms: C_11  and  N_27
REMARK   17  A    between atoms: C_13  and  C_26
REMARK   18  A    between atoms: C_14  and  C_23
REMARK   19  A    between atoms: O_18  and  C_25
REMARK   20  A    between atoms: C_19  and  C_25
REMARK   21  A    between atoms: C_21  and  N_27
REMARK                            x       y       z     vdW  Elec       q    Type
REMARK                         _______ _______ _______ _____ _____    ______ ____
ROOT
ATOM      1  C   UNL     1       5.109  60.850  23.924  0.00  0.00    +0.000 C 
ENDROOT
BRANCH   1   5
ATOM      2  C   UNL     1       5.368  61.764  26.359  0.00  0.00    +0.000 C 
ATOM      3  N   UNL     1       3.209  61.706  25.277  0.00  0.00    +0.000 N 
ATOM      4  C   UNL     1       2.234  63.887  25.883  0.00  0.00    +0.000 C 
ATOM      5  C   UNL     1       4.493  60.957  25.359  0.00  0.00    +0.000 C 
ATOM      6  C   UNL     1       4.413  62.871  26.905  0.00  0.00    +0.000 C 
ATOM      7  C   UNL     1       3.507  63.081  25.673  0.00  0.00    +0.000 C 
ATOM      8  H   UNL     1       2.522  61.299  25.909  0.00  0.00    +0.000 HD
ATOM      9  H   UNL     1       2.819  61.670  24.335  0.00  0.00    +0.000 HD
BRANCH   6  10
ATOM     10  O   UNL     1       5.160  64.061  27.210  0.00  0.00    +0.000 OA
ATOM     11  H   UNL     1       4.592  64.686  27.686  0.00  0.00    +0.000 HD
ENDBRANCH   6  10
BRANCH   2  12
ATOM     12  C   UNL     1       6.054  60.867  27.397  0.00  0.00    +0.000 C 
ATOM     13  C   UNL     1       5.591  59.418  27.329  0.00  0.00    +0.000 C 
ENDBRANCH   2  12
BRANCH   6  14
ATOM     14  C   UNL     1       3.612  62.496  28.176  0.00  0.00    +0.000 C 
BRANCH  14  15
ATOM     15  O   UNL     1       3.720  63.523  29.166  0.00  0.00    +0.000 OA
ATOM     16  H   UNL     1       2.868  63.977  29.256  0.00  0.00    +0.000 HD
ENDBRANCH  14  15
ENDBRANCH   6  14
ENDBRANCH   1   5
BRANCH   1  17
ATOM     17  O   UNL     1       5.864  62.055  23.652  0.00  0.00    +0.000 OA
ATOM     18  H   UNL     1       6.189  62.429  24.486  0.00  0.00    +0.000 HD
ENDBRANCH   1  17
BRANCH   1  19
ATOM     19  C   UNL     1       4.164  60.534  22.715  0.00  0.00    +0.000 C 
BRANCH  19  20
ATOM     20  C   UNL     1       4.680  61.246  21.448  0.00  0.00    +0.000 C 
ATOM     21  C   UNL     1       5.654  60.939  20.570  0.00  0.00    +0.000 C 
BRANCH  20  22
ATOM     22  O   UNL     1       3.913  62.382  21.179  0.00  0.00    +0.000 OA
ATOM     23  H   UNL     1       3.998  63.144  21.719  0.00  0.00    +0.000 HD
ENDBRANCH  20  22
BRANCH  21  25
ATOM     24  C   UNL     1       7.726  60.079  19.472  0.00  0.00    +0.000 C 
ATOM     25  C   UNL     1       6.642  59.809  20.506  0.00  0.00    +0.000 C 
ENDBRANCH  21  25
ENDBRANCH  19  20
BRANCH  19  26
ATOM     26  C   UNL     1       3.680  59.060  22.543  0.00  0.00    +0.000 C 
BRANCH  26  27
ATOM     27  N   UNL     1       4.554  57.887  22.740  0.00  0.00    +0.000 N 
ATOM     28  H   UNL     1       5.471  58.326  22.825  0.00  0.00    +0.000 HD
BRANCH  27  29
ATOM     29  C   UNL     1       4.410  57.186  24.012  0.00  0.00    +0.000 C 
ATOM     30  C   UNL     1       5.748  56.936  24.704  0.00  0.00    +0.000 C 
ENDBRANCH  27  29
BRANCH  27  31
ATOM     31  C   UNL     1       4.695  57.000  21.569  0.00  0.00    +0.000 C 
ATOM     32  C   UNL     1       4.140  55.586  21.714  0.00  0.00    +0.000 C 
BRANCH  31  33
ATOM     33  O   UNL     1       4.049  57.594  20.424  0.00  0.00    +0.000 OA
BRANCH  33  34
ATOM     34  O   UNL     1       4.427  56.768  19.272  0.00  0.00    +0.000 OA
ATOM     35  H   UNL     1       4.522  55.845  19.553  0.00  0.00    +0.000 HD
ENDBRANCH  33  34
ENDBRANCH  31  33
ENDBRANCH  27  31
ENDBRANCH  26  27
ENDBRANCH  19  26
ENDBRANCH   1  19
TORSDOF 16
ENDMDL

MODEL 79
REMARK VINA RESULT:      -7.1      0.000      0.000
REMARK  Name = 
REMARK  11 active torsions:
REMARK  status: ('A' for Active; 'I' for Inactive)
REMARK    1  A    between atoms: C_4  and  C_17
REMARK    2  A    between atoms: C_5  and  S_8
REMARK    3  A    between atoms: C_6  and  C_10
REMARK    4  A    between atoms: C_6  and  C_13
REMARK    5  A    between atoms: C_7  and  O_19
REMARK    6  A    between atoms: S_8  and  O_23
REMARK    7  A    between atoms: N_9  and  C_25
REMARK    8  A    between atoms: C_10  and  C_21
REMARK    9  A    between atoms: C_10  and  O_23
REMARK   10  A    between atoms: C_11  and  C_16
REMARK   11  A    between atoms: O_18  and  C_26
REMARK                            x       y       z     vdW  Elec       q    Type
REMARK                         _______ _______ _______ _____ _____    ______ ____
ROOT
ATOM      1  C   UNL     1       4.986  59.791  22.938  0.00  0.00    +0.000 C 
ATOM      2  N   UNL     1       4.629  58.556  23.440  0.00  0.00    +0.000 N 
ATOM      3  O   UNL     1       5.381  60.749  23.600  0.00  0.00    +0.000 OA
ATOM      4  H   UNL     1       4.347  57.885  22.776  0.00  0.00    +0.000 HD
ENDROOT
BRANCH   1  11
ATOM      5  C   UNL     1       7.336  61.936  19.602  0.00  0.00    +0.000 C 
ATOM      6  N   UNL     1       5.813  58.957  20.743  0.00  0.00    +0.000 N 
ATOM      7  C   UNL     1       7.330  59.692  18.941  0.00  0.00    +0.000 C 
ATOM      8  C   UNL     1       5.183  61.249  20.802  0.00  0.00    +0.000 C 
ATOM      9  O   UNL     1       7.269  63.148  19.425  0.00  0.00    +0.000 OA
ATOM     10  C   UNL     1       4.638  62.462  21.545  0.00  0.00    +0.000 C 
ATOM     11  C   UNL     1       4.841  59.879  21.395  0.00  0.00    +0.000 C 
ATOM     12  C   UNL     1       7.014  59.744  20.437  0.00  0.00    +0.000 C 
ATOM     13  C   UNL     1       8.078  60.988  18.674  0.00  0.00    +0.000 C 
ATOM     14  C   UNL     1       6.701  61.208  20.758  0.00  0.00    +0.000 C 
ATOM     15  H   UNL     1       5.414  58.579  19.884  0.00  0.00    +0.000 HD
ATOM     16  H   UNL     1       6.038  58.172  21.355  0.00  0.00    +0.000 HD
BRANCH  13  17
ATOM     17  O   UNL     1       8.024  61.345  17.313  0.00  0.00    +0.000 OA
ATOM     18  H   UNL     1       8.855  61.096  16.880  0.00  0.00    +0.000 HD
ENDBRANCH  13  17
ENDBRANCH   1  11
BRANCH   2  24
ATOM     19  C   UNL     1       5.022  58.349  27.137  0.00  0.00    +0.000 A 
ATOM     20  C   UNL     1       4.087  56.865  25.039  0.00  0.00    +0.000 A 
ATOM     21  C   UNL     1       5.096  58.885  25.854  0.00  0.00    +0.000 A 
ATOM     22  C   UNL     1       4.052  56.407  26.344  0.00  0.00    +0.000 A 
ATOM     23  N   UNL     1       4.506  57.122  27.393  0.00  0.00    +0.000 NA
ATOM     24  C   UNL     1       4.619  58.131  24.786  0.00  0.00    +0.000 A 
BRANCH  20  25
ATOM     25  O   UNL     1       3.617  56.124  23.988  0.00  0.00    +0.000 OA
ATOM     26  H   UNL     1       4.186  55.523  23.547  0.00  0.00    +0.000 HD
ENDBRANCH  20  25
BRANCH  19  27
ATOM     27  S   UNL     1       5.643  59.318  28.511  0.00  0.00    +0.000 S 
BRANCH  27  28
ATOM     28  O   UNL     1       6.659  60.363  27.697  0.00  0.00    +0.000 OA
BRANCH  28  29
ATOM     29  C   UNL     1       6.588  61.736  28.103  0.00  0.00    +0.000 C 
ATOM     30  C   UNL     1       6.097  61.729  29.549  0.00  0.00    +0.000 C 
BRANCH  29  31
ATOM     31  C   UNL     1       5.635  62.492  27.166  0.00  0.00    +0.000 C 
ATOM     32  C   UNL     1       4.775  63.530  27.870  0.00  0.00    +0.000 C 
ENDBRANCH  29  31
ENDBRANCH  28  29
ENDBRANCH  27  28
ENDBRANCH  19  27
ENDBRANCH   2  24
TORSDOF 8
ENDMDL

MODEL 80
REMARK VINA RESULT:      -6.9      0.000      0.000
REMARK  Name = 
REMARK  15 active torsions:
REMARK  status: ('A' for Active; 'I' for Inactive)
REMARK    1  A    between atoms: C_1  and  C_2
REMARK    2  A    between atoms: C_3  and  N_15
REMARK    3  A    between atoms: C_4  and  C_9
REMARK    4  A    between atoms: C_4  and  O_11
REMARK    5  A    between atoms: C_4  and  C_12
REMARK    6  A    between atoms: C_4  and  N_20
REMARK    7  A    between atoms: C_5  and  N_20
REMARK    8  A    between atoms: C_7  and  O_22
REMARK    9  A    between atoms: C_8  and  C_18
REMARK   10  A    between atoms: C_10  and  O_17
REMARK   11  A    between atoms: C_10  and  C_23
REMARK   12  A    between atoms: C_14  and  N_20
REMARK   13  A    between atoms: C_16  and  C_25
REMARK   14  A    between atoms: C_23  and  C_27
REMARK   15  A    between atoms: C_25  and  C_26
REMARK                            x       y       z     vdW  Elec       q    Type
REMARK                         _______ _______ _______ _____ _____    ______ ____
ROOT
ATOM      1  C   UNL     1       5.011  57.923  20.937  0.00  0.00    +0.000 C 
ATOM      2  O   UNL     1       4.333  57.747  19.929  0.00  0.00    +0.000 OA
ATOM      3  N   UNL     1       4.890  57.212  22.120  0.00  0.00    +0.000 N 
ATOM      4  H   UNL     1       5.504  57.478  22.843  0.00  0.00    +0.000 HD
ENDROOT
BRANCH   1   5
ATOM      5  C   UNL     1       6.083  59.038  21.051  0.00  0.00    +0.000 C 
ATOM      6  C   UNL     1       6.897  59.864  18.992  0.00  0.00    +0.000 C 
ATOM      7  C   UNL     1       8.107  60.016  18.086  0.00  0.00    +0.000 C 
ATOM      8  N   UNL     1       7.153  58.862  20.037  0.00  0.00    +0.000 N 
ATOM      9  C   UNL     1       5.453  60.416  20.776  0.00  0.00    +0.000 C 
ATOM     10  C   UNL     1       6.419  61.104  19.774  0.00  0.00    +0.000 C 
ATOM     11  H   UNL     1       7.116  57.923  19.643  0.00  0.00    +0.000 HD
ATOM     12  H   UNL     1       8.079  58.984  20.449  0.00  0.00    +0.000 HD
BRANCH   9  14
ATOM     13  C   UNL     1       4.233  62.520  21.734  0.00  0.00    +0.000 C 
ATOM     14  C   UNL     1       4.979  61.218  21.999  0.00  0.00    +0.000 C 
ENDBRANCH   9  14
BRANCH  10  15
ATOM     15  C   UNL     1       7.520  61.963  20.423  0.00  0.00    +0.000 C 
BRANCH  15  16
ATOM     16  C   UNL     1       7.552  63.408  19.923  0.00  0.00    +0.000 C 
BRANCH  16  17
ATOM     17  O   UNL     1       7.939  63.422  18.554  0.00  0.00    +0.000 OA
ATOM     18  H   UNL     1       7.495  62.699  18.084  0.00  0.00    +0.000 HD
ENDBRANCH  16  17
ENDBRANCH  15  16
ENDBRANCH  10  15
ENDBRANCH   1   5
BRANCH   3  19
ATOM     19  C   UNL     1       4.005  56.159  22.426  0.00  0.00    +0.000 A 
ATOM     20  C   UNL     1       2.193  54.177  23.225  0.00  0.00    +0.000 A 
ATOM     21  C   UNL     1       3.357  56.233  23.667  0.00  0.00    +0.000 A 
ATOM     22  C   UNL     1       2.839  54.057  21.979  0.00  0.00    +0.000 A 
ATOM     23  C   UNL     1       2.454  55.256  24.071  0.00  0.00    +0.000 A 
ATOM     24  C   UNL     1       3.736  55.077  21.588  0.00  0.00    +0.000 A 
BRANCH  22  25
ATOM     25  C   UNL     1       2.530  52.881  21.026  0.00  0.00    +0.000 C 
ATOM     26  C   UNL     1       1.723  51.863  21.858  0.00  0.00    +0.000 C 
BRANCH  25  29
ATOM     27  C   UNL     1       1.520  52.233  18.863  0.00  0.00    +0.000 C 
ATOM     28  C   UNL     1       0.596  54.071  20.078  0.00  0.00    +0.000 C 
ATOM     29  N   UNL     1       1.817  53.311  19.809  0.00  0.00    +0.000 N 
ATOM     30  H   UNL     1       2.493  53.932  19.364  0.00  0.00    +0.000 HD
ENDBRANCH  25  29
BRANCH  25  31
ATOM     31  O   UNL     1       3.740  52.220  20.662  0.00  0.00    +0.000 OA
ATOM     32  H   UNL     1       4.316  52.149  21.440  0.00  0.00    +0.000 HD
ENDBRANCH  25  31
ENDBRANCH  22  25
BRANCH  21  33
ATOM     33  O   UNL     1       3.630  57.307  24.479  0.00  0.00    +0.000 OA
ATOM     34  H   UNL     1       2.974  57.631  25.065  0.00  0.00    +0.000 HD
ENDBRANCH  21  33
ENDBRANCH   3  19
TORSDOF 10
ENDMDL

MODEL 81
ROOT
ATOM      1  C   UNL     1       0.000   0.000   0.000  0.00  0.00    +0.000 C
ENDROOT
TORSDOF 0
ENDMDL

MODEL 82
ROOT
ATOM      1  C   UNL     1       0.000   0.000   0.000  0.00  0.00    +0.000 C
ENDROOT
TORSDOF 0
ENDMDL

MODEL 83
REMARK VINA RESULT:      -6.0      0.000      0.000
REMARK  Name = 
REMARK  18 active torsions:
REMARK  status: ('A' for Active; 'I' for Inactive)
REMARK    1  A    between atoms: C_1  and  O_22
REMARK    2  A    between atoms: C_2  and  C_17
REMARK    3  A    between atoms: C_2  and  C_20
REMARK    4  A    between atoms: C_2  and  C_21
REMARK    5  A    between atoms: C_2  and  C_25
REMARK    6  A    between atoms: C_3  and  C_8
REMARK    7  A    between atoms: O_4  and  C_13
REMARK    8  A    between atoms: O_5  and  C_14
REMARK    9  A    between atoms: C_6  and  C_13
REMARK   10  A    between atoms: C_8  and  N_12
REMARK   11  A    between atoms: C_10  and  N_12
REMARK   12  A    between atoms: C_10  and  C_24
REMARK   13  A    between atoms: N_12  and  C_13
REMARK   14  A    between atoms: C_14  and  C_21
REMARK   15  A    between atoms: C_17  and  C_26
REMARK   16  A    between atoms: C_18  and  C_26
REMARK   17  A    between atoms: O_19  and  C_26
REMARK   18  A    between atoms: C_20  and  C_23
REMARK                            x       y       z     vdW  Elec       q    Type
REMARK                         _______ _______ _______ _____ _____    ______ ____
ROOT
ATOM      1  C   UNL     1       5.710  61.680  21.617  0.00  0.00    +0.000 A 
ATOM      2  C   UNL     1       7.191  60.162  19.868  0.00  0.00    +0.000 A 
ATOM      3  N   UNL     1       7.328  61.513  19.822  0.00  0.00    +0.000 NA
ATOM      4  C   UNL     1       6.309  59.532  20.745  0.00  0.00    +0.000 A 
ATOM      5  C   UNL     1       6.591  62.235  20.698  0.00  0.00    +0.000 A 
ATOM      6  C   UNL     1       5.530  60.297  21.633  0.00  0.00    +0.000 A 
ENDROOT
BRANCH   1   7
ATOM      7  O   UNL     1       5.055  62.534  22.454  0.00  0.00    +0.000 OA
ATOM      8  H   UNL     1       4.391  62.209  23.030  0.00  0.00    +0.000 HD
ENDBRANCH   1   7
BRANCH   2   9
ATOM      9  C   UNL     1       8.019  59.352  18.887  0.00  0.00    +0.000 C 
BRANCH   9  10
ATOM     10  N   UNL     1       7.965  59.769  17.479  0.00  0.00    +0.000 N 
ATOM     11  H   UNL     1       7.118  60.335  17.420  0.00  0.00    +0.000 HD
BRANCH  10  13
ATOM     12  C   UNL     1       8.813  57.936  15.905  0.00  0.00    +0.000 C 
ATOM     13  C   UNL     1       7.644  58.725  16.505  0.00  0.00    +0.000 C 
BRANCH  13  14
ATOM     14  O   UNL     1       6.693  57.798  17.013  0.00  0.00    +0.000 OA
ATOM     15  H   UNL     1       6.336  57.268  16.284  0.00  0.00    +0.000 HD
ENDBRANCH  13  14
ENDBRANCH  10  13
BRANCH  10  16
ATOM     16  C   UNL     1       9.038  60.688  17.106  0.00  0.00    +0.000 C 
ATOM     17  C   UNL     1       8.560  61.830  16.214  0.00  0.00    +0.000 C 
ENDBRANCH  10  16
ENDBRANCH   9  10
ENDBRANCH   2   9
BRANCH   6  18
ATOM     18  C   UNL     1       4.546  59.608  22.555  0.00  0.00    +0.000 C 
BRANCH  18  19
ATOM     19  O   UNL     1       3.378  60.410  22.689  0.00  0.00    +0.000 OA
ATOM     20  H   UNL     1       2.655  60.015  22.177  0.00  0.00    +0.000 HD
ENDBRANCH  18  19
BRANCH  18  21
ATOM     21  C   UNL     1       4.181  58.210  22.028  0.00  0.00    +0.000 C 
BRANCH  21  22
ATOM     22  C   UNL     1       4.027  57.074  23.086  0.00  0.00    +0.000 C 
BRANCH  22  24
ATOM     23  O   UNL     1       2.813  54.994  22.759  0.00  0.00    +0.000 OA
ATOM     24  C   UNL     1       3.569  55.846  22.275  0.00  0.00    +0.000 C 
BRANCH  24  25
ATOM     25  C   UNL     1       4.128  55.642  20.867  0.00  0.00    +0.000 C 
BRANCH  25  26
ATOM     26  O   UNL     1       3.807  54.349  20.367  0.00  0.00    +0.000 OA
ATOM     27  H   UNL     1       2.882  54.145  20.574  0.00  0.00    +0.000 HD
ENDBRANCH  25  26
ENDBRANCH  24  25
ENDBRANCH  22  24
BRANCH  22  29
ATOM     28  C   UNL     1       2.198  57.751  24.933  0.00  0.00    +0.000 C 
ATOM     29  C   UNL     1       3.016  57.453  24.106  0.00  0.00    +0.000 C 
ENDBRANCH  22  29
BRANCH  22  30
ATOM     30  C   UNL     1       5.374  56.748  23.788  0.00  0.00    +0.000 C 
ATOM     31  C   UNL     1       5.539  57.354  25.182  0.00  0.00    +0.000 C 
ENDBRANCH  22  30
ENDBRANCH  21  22
ENDBRANCH  18  21
ENDBRANCH   6  18
TORSDOF 15
ENDMDL

MODEL 84
ROOT
ATOM      1  C   UNL     1       0.000   0.000   0.000  0.00  0.00    +0.000 C
ENDROOT
TORSDOF 0
ENDMDL

MODEL 85
REMARK VINA RESULT:      -7.5      0.000      0.000
REMARK  Name = 
REMARK  11 active torsions:
REMARK  status: ('A' for Active; 'I' for Inactive)
REMARK    1  A    between atoms: C_1  and  C_27
REMARK    2  A    between atoms: C_2  and  C_19
REMARK    3  A    between atoms: C_4  and  C_7
REMARK    4  A    between atoms: C_6  and  O_22
REMARK    5  A    between atoms: C_7  and  C_16
REMARK    6  A    between atoms: C_10  and  O_14
REMARK    7  A    between atoms: C_12  and  N_23
REMARK    8  A    between atoms: C_13  and  C_16
REMARK    9  A    between atoms: C_16  and  O_24
REMARK   10  A    between atoms: O_20  and  O_24
REMARK   11  A    between atoms: O_20  and  C_26
REMARK                            x       y       z     vdW  Elec       q    Type
REMARK                         _______ _______ _______ _____ _____    ______ ____
ROOT
ATOM      1  C   UNL     1       4.532  58.225  20.949  0.00  0.00    +0.000 C 
ATOM      2  O   UNL     1       3.483  58.864  20.892  0.00  0.00    +0.000 OA
ATOM      3  N   UNL     1       4.678  56.876  20.698  0.00  0.00    +0.000 N 
ATOM      4  H   UNL     1       5.594  56.524  20.771  0.00  0.00    +0.000 HD
ENDROOT
BRANCH   1  12
ATOM      5  C   UNL     1       5.693  60.453  21.457  0.00  0.00    +0.000 C 
ATOM      6  C   UNL     1       8.123  60.219  18.604  0.00  0.00    +0.000 C 
ATOM      7  C   UNL     1       6.856  60.993  20.621  0.00  0.00    +0.000 C 
ATOM      8  C   UNL     1       7.925  62.705  19.145  0.00  0.00    +0.000 C 
ATOM      9  C   UNL     1       6.896  59.990  19.475  0.00  0.00    +0.000 C 
ATOM     10  C   UNL     1       8.091  61.646  18.046  0.00  0.00    +0.000 C 
ATOM     11  N   UNL     1       6.861  58.718  20.189  0.00  0.00    +0.000 N 
ATOM     12  C   UNL     1       5.871  58.917  21.300  0.00  0.00    +0.000 C 
ATOM     13  C   UNL     1       6.739  62.411  20.075  0.00  0.00    +0.000 C 
ATOM     14  H   UNL     1       7.781  58.493  20.565  0.00  0.00    +0.000 HD
ATOM     15  H   UNL     1       6.596  57.946  19.577  0.00  0.00    +0.000 HD
BRANCH   8  16
ATOM     16  O   UNL     1       7.736  63.973  18.528  0.00  0.00    +0.000 OA
ATOM     17  H   UNL     1       6.887  63.982  18.060  0.00  0.00    +0.000 HD
ENDBRANCH   8  16
BRANCH   5  19
ATOM     18  C   UNL     1       4.828  60.774  23.852  0.00  0.00    +0.000 C 
ATOM     19  C   UNL     1       5.660  61.058  22.842  0.00  0.00    +0.000 C 
ENDBRANCH   5  19
ENDBRANCH   1  12
BRANCH   3  23
ATOM     20  C   UNL     1       2.521  54.829  18.515  0.00  0.00    +0.000 A 
ATOM     21  C   UNL     1       3.470  55.737  18.977  0.00  0.00    +0.000 A 
ATOM     22  C   UNL     1       2.929  55.208  21.268  0.00  0.00    +0.000 A 
ATOM     23  C   UNL     1       3.685  55.937  20.350  0.00  0.00    +0.000 A 
ATOM     24  C   UNL     1       1.768  54.110  19.441  0.00  0.00    +0.000 A 
ATOM     25  C   UNL     1       1.961  54.305  20.811  0.00  0.00    +0.000 A 
BRANCH  21  26
ATOM     26  O   UNL     1       4.227  56.463  18.090  0.00  0.00    +0.000 OA
ATOM     27  H   UNL     1       4.010  57.357  17.911  0.00  0.00    +0.000 HD
ENDBRANCH  21  26
BRANCH  25  28
ATOM     28  O   UNL     1       1.179  53.535  21.640  0.00  0.00    +0.000 OA
BRANCH  28  29
ATOM     29  O   UNL     1       1.125  52.179  21.101  0.00  0.00    +0.000 OA
BRANCH  29  31
ATOM     30  C   UNL     1       1.377  51.886  23.509  0.00  0.00    +0.000 C 
ATOM     31  C   UNL     1       1.594  51.290  22.120  0.00  0.00    +0.000 C 
BRANCH  31  33
ATOM     32  C   UNL     1       3.443  50.881  20.427  0.00  0.00    +0.000 C 
ATOM     33  C   UNL     1       3.051  50.862  21.898  0.00  0.00    +0.000 C 
ENDBRANCH  31  33
ENDBRANCH  29  31
ENDBRANCH  28  29
ENDBRANCH  25  28
ENDBRANCH   3  23
TORSDOF 9
ENDMDL

MODEL 86
REMARK VINA RESULT:      -7.3      0.000      0.000
REMARK  Name = 
REMARK  14 active torsions:
REMARK  status: ('A' for Active; 'I' for Inactive)
REMARK    1  A    between atoms: C_3  and  C_24
REMARK    2  A    between atoms: C_4  and  C_9
REMARK    3  A    between atoms: N_5  and  C_21
REMARK    4  A    between atoms: O_6  and  C_9
REMARK    5  A    between atoms: O_7  and  C_24
REMARK    6  A    between atoms: C_9  and  C_17
REMARK    7  A    between atoms: C_10  and  C_17
REMARK    8  A    between atoms: C_10  and  N_18
REMARK    9  A    between atoms: C_11  and  O_20
REMARK   10  A    between atoms: C_12  and  C_16
REMARK   11  A    between atoms: C_13  and  C_17
REMARK   12  A    between atoms: C_14  and  C_26
REMARK   13  A    between atoms: C_22  and  C_25
REMARK   14  A    between atoms: C_23  and  C_24
REMARK                            x       y       z     vdW  Elec       q    Type
REMARK                         _______ _______ _______ _____ _____    ______ ____
ROOT
ATOM      1  C   UNL     1       6.969  62.865  20.099  0.00  0.00    +0.000 A 
ATOM      2  C   UNL     1       7.705  60.864  18.924  0.00  0.00    +0.000 A 
ATOM      3  C   UNL     1       6.344  62.064  21.050  0.00  0.00    +0.000 A 
ATOM      4  C   UNL     1       7.059  60.074  19.895  0.00  0.00    +0.000 A 
ATOM      5  C   UNL     1       7.646  62.262  19.039  0.00  0.00    +0.000 A 
ATOM      6  C   UNL     1       6.380  60.665  20.960  0.00  0.00    +0.000 A 
ENDROOT
BRANCH   6   8
ATOM      7  O   UNL     1       3.591  59.645  21.086  0.00  0.00    +0.000 OA
ATOM      8  N   UNL     1       5.710  59.952  21.975  0.00  0.00    +0.000 N 
ATOM      9  C   UNL     1       4.408  59.506  21.993  0.00  0.00    +0.000 C 
ATOM     10  H   UNL     1       6.243  59.747  22.777  0.00  0.00    +0.000 HD
BRANCH   9  16
ATOM     11  C   UNL     1       4.255  56.567  24.399  0.00  0.00    +0.000 C 
ATOM     12  C   UNL     1       5.018  58.867  24.416  0.00  0.00    +0.000 C 
ATOM     13  C   UNL     1       5.494  57.441  24.703  0.00  0.00    +0.000 C 
ATOM     14  C   UNL     1       4.371  56.560  21.856  0.00  0.00    +0.000 C 
ATOM     15  C   UNL     1       6.139  57.323  26.072  0.00  0.00    +0.000 C 
ATOM     16  C   UNL     1       4.015  58.738  23.258  0.00  0.00    +0.000 C 
ATOM     17  C   UNL     1       3.736  57.225  23.082  0.00  0.00    +0.000 C 
BRANCH  11  19
ATOM     18  C   UNL     1       2.848  55.101  25.994  0.00  0.00    +0.000 C 
ATOM     19  C   UNL     1       3.166  56.513  25.504  0.00  0.00    +0.000 C 
BRANCH  19  20
ATOM     20  O   UNL     1       1.934  57.033  24.995  0.00  0.00    +0.000 OA
ATOM     21  H   UNL     1       1.504  56.362  24.441  0.00  0.00    +0.000 HD
ENDBRANCH  19  20
ENDBRANCH  11  19
ENDBRANCH   9  16
ENDBRANCH   6   8
BRANCH   3  22
ATOM     22  O   UNL     1       5.669  62.631  22.104  0.00  0.00    +0.000 OA
ATOM     23  H   UNL     1       6.113  62.792  22.912  0.00  0.00    +0.000 HD
ENDBRANCH   3  22
BRANCH   2  24
ATOM     24  C   UNL     1       8.435  60.185  17.779  0.00  0.00    +0.000 C 
BRANCH  24  25
ATOM     25  O   UNL     1       9.325  61.088  17.118  0.00  0.00    +0.000 OA
ATOM     26  H   UNL     1      10.134  60.617  16.864  0.00  0.00    +0.000 HD
ENDBRANCH  24  25
BRANCH  24  28
ATOM     27  C   UNL     1       8.274  58.219  16.224  0.00  0.00    +0.000 C 
ATOM     28  C   UNL     1       7.529  59.456  16.756  0.00  0.00    +0.000 C 
BRANCH  28  29
ATOM     29  C   UNL     1       7.091  60.308  15.547  0.00  0.00    +0.000 C 
BRANCH  29  30
ATOM     30  N   UNL     1       6.368  59.554  14.526  0.00  0.00    +0.000 N 
ATOM     31  H   UNL     1       6.511  58.555  14.676  0.00  0.00    +0.000 HD
ATOM     32  H   UNL     1       6.716  59.813  13.603  0.00  0.00    +0.000 HD
ATOM     33  H   UNL     1       5.372  59.769  14.587  0.00  0.00    +0.000 HD
ENDBRANCH  29  30
ENDBRANCH  28  29
ENDBRANCH  24  28
ENDBRANCH   2  24
TORSDOF 10
ENDMDL

MODEL 87
REMARK VINA RESULT:      -6.6      0.000      0.000
REMARK  Name = 
REMARK  12 active torsions:
REMARK  status: ('A' for Active; 'I' for Inactive)
REMARK    1  A    between atoms: C_1  and  C_16
REMARK    2  A    between atoms: C_2  and  C_12
REMARK    3  A    between atoms: C_3  and  O_13
REMARK    4  A    between atoms: C_5  and  N_23
REMARK    5  A    between atoms: C_6  and  C_20
REMARK    6  A    between atoms: C_8  and  O_22
REMARK    7  A    between atoms: C_10  and  C_14
REMARK    8  A    between atoms: C_10  and  C_21
REMARK    9  A    between atoms: C_12  and  C_18
REMARK   10  A    between atoms: C_14  and  O_22
REMARK   11  A    between atoms: C_15  and  C_26
REMARK   12  A    between atoms: C_24  and  C_26
REMARK                            x       y       z     vdW  Elec       q    Type
REMARK                         _______ _______ _______ _____ _____    ______ ____
ROOT
ATOM      1  C   UNL     1       4.260  58.783  21.882  0.00  0.00    +0.000 C 
ATOM      2  O   UNL     1       3.946  58.373  20.766  0.00  0.00    +0.000 OA
ATOM      3  N   UNL     1       5.142  59.808  22.154  0.00  0.00    +0.000 N 
ATOM      4  H   UNL     1       5.259  60.033  23.107  0.00  0.00    +0.000 HD
ENDROOT
BRANCH   1   9
ATOM      5  C   UNL     1       3.233  59.255  24.193  0.00  0.00    +0.000 C 
ATOM      6  C   UNL     1       5.246  58.162  24.889  0.00  0.00    +0.000 C 
ATOM      7  N   UNL     1       4.622  57.320  23.861  0.00  0.00    +0.000 N 
ATOM      8  C   UNL     1       4.049  58.912  25.459  0.00  0.00    +0.000 C 
ATOM      9  C   UNL     1       3.632  58.177  23.167  0.00  0.00    +0.000 C 
ATOM     10  C   UNL     1       5.978  57.289  25.898  0.00  0.00    +0.000 C 
ATOM     11  H   UNL     1       4.157  56.522  24.294  0.00  0.00    +0.000 HD
ATOM     12  H   UNL     1       5.317  56.953  23.210  0.00  0.00    +0.000 HD
BRANCH   8  14
ATOM     13  O   UNL     1       4.840  60.175  27.388  0.00  0.00    +0.000 OA
ATOM     14  C   UNL     1       4.492  60.148  26.214  0.00  0.00    +0.000 C 
BRANCH  14  16
ATOM     15  O   UNL     1       5.389  61.784  24.718  0.00  0.00    +0.000 OA
ATOM     16  C   UNL     1       4.482  61.463  25.468  0.00  0.00    +0.000 C 
ENDBRANCH  14  16
ENDBRANCH   8  14
BRANCH   5  17
ATOM     17  C   UNL     1       1.719  59.380  24.439  0.00  0.00    +0.000 C 
ATOM     18  C   UNL     1       1.128  58.473  25.511  0.00  0.00    +0.000 C 
ENDBRANCH   5  17
ENDBRANCH   1   9
BRANCH   3  20
ATOM     19  C   UNL     1       5.688  61.961  21.274  0.00  0.00    +0.000 A 
ATOM     20  C   UNL     1       5.899  60.576  21.247  0.00  0.00    +0.000 A 
ATOM     21  C   UNL     1       7.536  60.902  19.482  0.00  0.00    +0.000 A 
ATOM     22  C   UNL     1       6.384  62.815  20.422  0.00  0.00    +0.000 A 
ATOM     23  C   UNL     1       6.827  60.055  20.346  0.00  0.00    +0.000 A 
ATOM     24  C   UNL     1       7.310  62.280  19.524  0.00  0.00    +0.000 A 
BRANCH  19  25
ATOM     25  O   UNL     1       4.773  62.462  22.167  0.00  0.00    +0.000 OA
ATOM     26  H   UNL     1       4.784  63.372  22.388  0.00  0.00    +0.000 HD
ENDBRANCH  19  25
BRANCH  21  27
ATOM     27  O   UNL     1       8.414  60.260  18.652  0.00  0.00    +0.000 OA
BRANCH  27  28
ATOM     28  C   UNL     1       8.592  60.797  17.341  0.00  0.00    +0.000 C 
BRANCH  28  29
ATOM     29  C   UNL     1       7.738  59.974  16.381  0.00  0.00    +0.000 C 
ATOM     30  C   UNL     1       7.925  58.482  16.595  0.00  0.00    +0.000 C 
ENDBRANCH  28  29
ENDBRANCH  27  28
ENDBRANCH  21  27
ENDBRANCH   3  20
TORSDOF 9
ENDMDL

MODEL 88
REMARK VINA RESULT:      -6.4      0.000      0.000
REMARK  Name = 
REMARK  15 active torsions:
REMARK  status: ('A' for Active; 'I' for Inactive)
REMARK    1  A    between atoms: C_2  and  C_17
REMARK    2  A    between atoms: C_3  and  N_11
REMARK    3  A    between atoms: C_3  and  C_22
REMARK    4  A    between atoms: C_4  and  C_5
REMARK    5  A    between atoms: C_4  and  O_21
REMARK    6  A    between atoms: C_5  and  O_8
REMARK    7  A    between atoms: C_7  and  C_18
REMARK    8  A    between atoms: C_9  and  C_17
REMARK    9  A    between atoms: C_10  and  C_28
REMARK   10  A    between atoms: N_11  and  S_14
REMARK   11  A    between atoms: N_11  and  C_25
REMARK   12  A    between atoms: C_13  and  S_14
REMARK   13  A    between atoms: S_14  and  O_15
REMARK   14  A    between atoms: S_14  and  O_20
REMARK   15  A    between atoms: C_19  and  C_25
REMARK                            x       y       z     vdW  Elec       q    Type
REMARK                         _______ _______ _______ _____ _____    ______ ____
ROOT
ATOM      1  C   UNL     1       2.468  55.446  19.307  0.00  0.00    +0.000 A 
ATOM      2  C   UNL     1       1.006  54.075  18.149  0.00  0.00    +0.000 A 
ATOM      3  N   UNL     1       2.937  56.683  19.484  0.00  0.00    +0.000 NA
ATOM      4  C   UNL     1       2.361  53.097  19.808  0.00  0.00    +0.000 A 
ATOM      5  C   UNL     1       2.937  54.362  20.068  0.00  0.00    +0.000 A 
ATOM      6  C   UNL     1       1.384  52.947  18.836  0.00  0.00    +0.000 A 
ATOM      7  C   UNL     1       3.936  54.630  21.027  0.00  0.00    +0.000 A 
ATOM      8  N   UNL     1       1.527  55.297  18.374  0.00  0.00    +0.000 NA
ATOM      9  C   UNL     1       3.881  56.932  20.425  0.00  0.00    +0.000 A 
ATOM     10  C   UNL     1       4.416  55.920  21.204  0.00  0.00    +0.000 A 
ENDROOT
BRANCH   9  14
ATOM     11  C   UNL     1       4.082  59.104  21.851  0.00  0.00    +0.000 C 
ATOM     12  C   UNL     1       5.067  60.285  21.729  0.00  0.00    +0.000 C 
ATOM     13  C   UNL     1       7.124  60.507  20.140  0.00  0.00    +0.000 C 
ATOM     14  C   UNL     1       4.372  58.361  20.532  0.00  0.00    +0.000 C 
ATOM     15  C   UNL     1       6.282  59.624  21.049  0.00  0.00    +0.000 C 
ATOM     16  O   UNL     1       5.791  58.504  20.289  0.00  0.00    +0.000 OA
BRANCH  11  18
ATOM     17  C   UNL     1       2.933  58.079  23.996  0.00  0.00    +0.000 C 
ATOM     18  C   UNL     1       4.186  58.267  23.152  0.00  0.00    +0.000 C 
ENDBRANCH  11  18
BRANCH  12  19
ATOM     19  O   UNL     1       5.398  60.870  22.996  0.00  0.00    +0.000 OA
ATOM     20  H   UNL     1       4.858  60.463  23.691  0.00  0.00    +0.000 HD
ENDBRANCH  12  19
BRANCH  12  21
ATOM     21  C   UNL     1       4.456  61.442  20.901  0.00  0.00    +0.000 C 
BRANCH  21  22
ATOM     22  O   UNL     1       4.374  62.622  21.702  0.00  0.00    +0.000 OA
ATOM     23  H   UNL     1       4.026  63.353  21.167  0.00  0.00    +0.000 HD
ENDBRANCH  21  22
ENDBRANCH  12  21
ENDBRANCH   9  14
BRANCH   4  24
ATOM     24  S   UNL     1       2.816  51.677  20.697  0.00  0.00    +0.000 S 
BRANCH  24  25
ATOM     25  O   UNL     1       4.396  51.433  20.560  0.00  0.00    +0.000 OA
ATOM     26  H   UNL     1       4.729  51.012  21.368  0.00  0.00    +0.000 HD
ENDBRANCH  24  25
BRANCH  24  27
ATOM     27  O   UNL     1       2.633  51.934  22.267  0.00  0.00    +0.000 OA
ATOM     28  H   UNL     1       3.496  52.124  22.667  0.00  0.00    +0.000 HD
ENDBRANCH  24  27
BRANCH  24  29
ATOM     29  N   UNL     1       2.080  50.240  20.247  0.00  0.00    +0.000 NA
BRANCH  29  30
ATOM     30  C   UNL     1       1.161  49.563  21.174  0.00  0.00    +0.000 C 
ATOM     31  C   UNL     1      -0.282  50.051  21.126  0.00  0.00    +0.000 C 
ENDBRANCH  29  30
BRANCH  29  33
ATOM     32  C   UNL     1       2.223  49.400  17.870  0.00  0.00    +0.000 C 
ATOM     33  C   UNL     1       2.747  49.332  19.301  0.00  0.00    +0.000 C 
ENDBRANCH  29  33
ENDBRANCH  24  29
ENDBRANCH   4  24
TORSDOF 11
ENDMDL

MODEL 89
REMARK VINA RESULT:      -6.7      0.000      0.000
REMARK  Name = 
REMARK  13 active torsions:
REMARK  status: ('A' for Active; 'I' for Inactive)
REMARK    1  A    between atoms: C_1  and  C_11
REMARK    2  A    between atoms: C_3  and  O_23
REMARK    3  A    between atoms: C_4  and  O_19
REMARK    4  A    between atoms: N_5  and  C_25
REMARK    5  A    between atoms: N_5  and  C_27
REMARK    6  A    between atoms: N_6  and  C_14
REMARK    7  A    between atoms: C_10  and  C_17
REMARK    8  A    between atoms: C_10  and  C_26
REMARK    9  A    between atoms: C_12  and  C_20
REMARK   10  A    between atoms: C_13  and  C_27
REMARK   11  A    between atoms: C_15  and  C_18
REMARK   12  A    between atoms: C_22  and  C_25
REMARK   13  A    between atoms: C_24  and  C_25
REMARK                            x       y       z     vdW  Elec       q    Type
REMARK                         _______ _______ _______ _____ _____    ______ ____
ROOT
ATOM      1  C   UNL     1       4.762  57.163  24.991  0.00  0.00    +0.000 C 
ATOM      2  N   UNL     1       3.685  57.019  24.142  0.00  0.00    +0.000 N 
ATOM      3  O   UNL     1       5.923  56.846  24.766  0.00  0.00    +0.000 OA
ATOM      4  H   UNL     1       2.826  57.327  24.513  0.00  0.00    +0.000 HD
ENDROOT
BRANCH   1   6
ATOM      5  N   UNL     1       5.282  57.308  27.399  0.00  0.00    +0.000 N 
ATOM      6  C   UNL     1       4.347  57.817  26.338  0.00  0.00    +0.000 C 
ATOM      7  C   UNL     1       5.798  59.591  27.067  0.00  0.00    +0.000 C 
ATOM      8  C   UNL     1       5.854  58.471  28.105  0.00  0.00    +0.000 C 
ATOM      9  C   UNL     1       4.446  59.351  26.391  0.00  0.00    +0.000 C 
ATOM     10  C   UNL     1       5.094  58.727  29.410  0.00  0.00    +0.000 C 
ATOM     11  H   UNL     1       6.030  56.763  26.968  0.00  0.00    +0.000 HD
ATOM     12  H   UNL     1       4.780  56.709  28.055  0.00  0.00    +0.000 HD
BRANCH   7  15
ATOM     13  O   UNL     1       5.059  61.776  27.814  0.00  0.00    +0.000 OA
ATOM     14  O   UNL     1       7.216  61.202  28.119  0.00  0.00    +0.000 OA
ATOM     15  C   UNL     1       5.958  60.960  27.688  0.00  0.00    +0.000 C 
ENDBRANCH   7  15
BRANCH   9  16
ATOM     16  C   UNL     1       4.280  60.113  25.070  0.00  0.00    +0.000 C 
ATOM     17  C   UNL     1       2.834  60.509  24.804  0.00  0.00    +0.000 C 
ENDBRANCH   9  16
ENDBRANCH   1   6
BRANCH   2  21
ATOM     18  C   UNL     1       2.964  55.248  22.749  0.00  0.00    +0.000 A 
ATOM     19  C   UNL     1       4.024  56.302  20.460  0.00  0.00    +0.000 A 
ATOM     20  C   UNL     1       2.844  54.531  21.568  0.00  0.00    +0.000 A 
ATOM     21  C   UNL     1       3.609  56.505  22.827  0.00  0.00    +0.000 A 
ATOM     22  C   UNL     1       3.372  55.071  20.409  0.00  0.00    +0.000 A 
ATOM     23  C   UNL     1       4.167  57.057  21.655  0.00  0.00    +0.000 A 
BRANCH  19  24
ATOM     24  O   UNL     1       4.572  56.719  19.272  0.00  0.00    +0.000 OA
ATOM     25  H   UNL     1       4.489  57.614  19.006  0.00  0.00    +0.000 HD
ENDBRANCH  19  24
BRANCH  23  27
ATOM     26  C   UNL     1       3.953  59.512  21.246  0.00  0.00    +0.000 C 
ATOM     27  C   UNL     1       4.928  58.381  21.607  0.00  0.00    +0.000 C 
BRANCH  27  28
ATOM     28  N   UNL     1       6.050  58.284  20.632  0.00  0.00    +0.000 N 
ATOM     29  H   UNL     1       5.668  57.964  19.741  0.00  0.00    +0.000 HD
ATOM     30  H   UNL     1       6.726  57.637  21.038  0.00  0.00    +0.000 HD
BRANCH  28  32
ATOM     31  C   UNL     1       7.676  59.510  19.164  0.00  0.00    +0.000 C 
ATOM     32  C   UNL     1       6.777  59.535  20.391  0.00  0.00    +0.000 C 
ENDBRANCH  28  32
ENDBRANCH  27  28
ENDBRANCH  23  27
BRANCH  18  33
ATOM     33  O   UNL     1       2.368  54.707  23.865  0.00  0.00    +0.000 OA
ATOM     34  H   UNL     1       1.485  54.398  23.822  0.00  0.00    +0.000 HD
ENDBRANCH  18  33
ENDBRANCH   2  21
TORSDOF 9
ENDMDL

MODEL 90
ROOT
ATOM      1  C   UNL     1       0.000   0.000   0.000  0.00  0.00    +0.000 C
ENDROOT
TORSDOF 0
ENDMDL

MODEL 91
REMARK VINA RESULT:      -6.1      0.000      0.000
REMARK  Name = 
REMARK  16 active torsions:
REMARK  status: ('A' for Active; 'I' for Inactive)
REMARK    1  A    between atoms: C_1  and  C_2
REMARK    2  A    between atoms: C_3  and  C_11
REMARK    3  A    between atoms: C_3  and  C_17
REMARK    4  A    between atoms: C_4  and  N_10
REMARK    5  A    between atoms: C_4  and  C_16
REMARK    6  A    between atoms: C_4  and  O_20
REMARK    7  A    between atoms: C_4  and  O_22
REMARK    8  A    between atoms: C_5  and  O_13
REMARK    9  A    between atoms: C_8  and  C_21
REMARK   10  A    between atoms: C_9  and  C_25
REMARK   11  A    between atoms: N_10  and  C_15
REMARK   12  A    between atoms: N_10  and  C_25
REMARK   13  A    between atoms: C_11  and  O_24
REMARK   14  A    between atoms: C_12  and  C_18
REMARK   15  A    between atoms: C_15  and  C_23
REMARK   16  A    between atoms: C_26  and  N_28
REMARK                            x       y       z     vdW  Elec       q    Type
REMARK                         _______ _______ _______ _____ _____    ______ ____
ROOT
ATOM      1  C   UNL     1       4.492  57.190  21.124  0.00  0.00    +0.000 A 
ATOM      2  C   UNL     1       3.416  55.680  19.595  0.00  0.00    +0.000 A 
ATOM      3  C   UNL     1       3.161  55.375  21.982  0.00  0.00    +0.000 A 
ATOM      4  C   UNL     1       2.866  54.952  20.667  0.00  0.00    +0.000 A 
ATOM      5  C   UNL     1       3.962  56.493  22.217  0.00  0.00    +0.000 A 
ATOM      6  C   UNL     1       4.228  56.794  19.818  0.00  0.00    +0.000 A 
ENDROOT
BRANCH   5   9
ATOM      7  C   UNL     1       3.550  57.816  24.316  0.00  0.00    +0.000 C 
ATOM      8  O   UNL     1       2.461  58.305  24.029  0.00  0.00    +0.000 OA
ATOM      9  N   UNL     1       4.292  56.983  23.497  0.00  0.00    +0.000 N 
ATOM     10  H   UNL     1       5.162  56.695  23.854  0.00  0.00    +0.000 HD
BRANCH   7  11
ATOM     11  C   UNL     1       4.265  58.089  25.658  0.00  0.00    +0.000 C 
ATOM     12  C   UNL     1       5.827  57.356  27.236  0.00  0.00    +0.000 C 
ATOM     13  C   UNL     1       5.422  59.084  25.552  0.00  0.00    +0.000 C 
ATOM     14  C   UNL     1       6.295  58.748  26.782  0.00  0.00    +0.000 C 
ATOM     15  C   UNL     1       5.012  60.543  25.400  0.00  0.00    +0.000 C 
ATOM     16  N   UNL     1       4.980  56.889  26.142  0.00  0.00    +0.000 N 
ATOM     17  C   UNL     1       6.983  56.391  27.466  0.00  0.00    +0.000 C 
ATOM     18  H   UNL     1       5.548  56.489  25.396  0.00  0.00    +0.000 HD
ATOM     19  H   UNL     1       4.334  56.160  26.447  0.00  0.00    +0.000 HD
BRANCH  14  20
ATOM     20  C   UNL     1       6.156  59.712  27.947  0.00  0.00    +0.000 C 
ATOM     21  O   UNL     1       6.871  60.710  28.072  0.00  0.00    +0.000 OA
BRANCH  20  22
ATOM     22  C   UNL     1       5.049  59.422  28.952  0.00  0.00    +0.000 C 
BRANCH  22  23
ATOM     23  O   UNL     1       5.564  59.217  30.258  0.00  0.00    +0.000 OA
ATOM     24  H   UNL     1       6.129  59.967  30.504  0.00  0.00    +0.000 HD
ENDBRANCH  22  23
ENDBRANCH  20  22
ENDBRANCH  14  20
ENDBRANCH   7  11
ENDBRANCH   5   9
BRANCH   1  25
ATOM     25  O   UNL     1       5.286  58.282  21.375  0.00  0.00    +0.000 OA
ATOM     26  H   UNL     1       6.184  58.280  21.107  0.00  0.00    +0.000 HD
ENDBRANCH   1  25
BRANCH   4  27
ATOM     27  C   UNL     1       1.979  53.731  20.430  0.00  0.00    +0.000 C 
BRANCH  27  28
ATOM     28  N   UNL     1       2.176  52.593  21.315  0.00  0.00    +0.000 N 
ATOM     29  H   UNL     1       3.004  52.860  21.850  0.00  0.00    +0.000 HD
BRANCH  28  31
ATOM     30  C   UNL     1       4.085  50.974  20.737  0.00  0.00    +0.000 C 
ATOM     31  C   UNL     1       2.606  51.351  20.659  0.00  0.00    +0.000 C 
ENDBRANCH  28  31
BRANCH  28  32
ATOM     32  C   UNL     1       1.145  52.429  22.344  0.00  0.00    +0.000 C 
ATOM     33  C   UNL     1       1.714  52.494  23.760  0.00  0.00    +0.000 C 
ENDBRANCH  28  32
ENDBRANCH  27  28
BRANCH  27  34
ATOM     34  O   UNL     1       0.621  54.100  20.532  0.00  0.00    +0.000 OA
ATOM     35  H   UNL     1       0.390  54.965  20.807  0.00  0.00    +0.000 HD
ENDBRANCH  27  34
BRANCH  27  36
ATOM     36  O   UNL     1       2.077  53.333  19.076  0.00  0.00    +0.000 OA
ATOM     37  H   UNL     1       2.795  52.799  18.796  0.00  0.00    +0.000 HD
ENDBRANCH  27  36
ENDBRANCH   4  27
TORSDOF 12
ENDMDL

MODEL 92
ROOT
ATOM      1  C   UNL     1       0.000   0.000   0.000  0.00  0.00    +0.000 C
ENDROOT
TORSDOF 0
ENDMDL

MODEL 93
ROOT
ATOM      1  C   UNL     1       0.000   0.000   0.000  0.00  0.00    +0.000 C
ENDROOT
TORSDOF 0
ENDMDL

MODEL 94
ROOT
ATOM      1  C   UNL     1       0.000   0.000   0.000  0.00  0.00    +0.000 C
ENDROOT
TORSDOF 0
ENDMDL

MODEL 95
REMARK VINA RESULT:      -6.5      0.000      0.000
REMARK  Name = 
REMARK  16 active torsions:
REMARK  status: ('A' for Active; 'I' for Inactive)
REMARK    1  A    between atoms: N_1  and  C_14
REMARK    2  A    between atoms: N_1  and  C_23
REMARK    3  A    between atoms: N_4  and  C_9
REMARK    4  A    between atoms: N_4  and  C_27
REMARK    5  A    between atoms: C_6  and  C_19
REMARK    6  A    between atoms: C_7  and  C_15
REMARK    7  A    between atoms: C_7  and  C_26
REMARK    8  A    between atoms: O_10  and  O_21
REMARK    9  A    between atoms: C_11  and  C_23
REMARK   10  A    between atoms: C_12  and  O_17
REMARK   11  A    between atoms: C_12  and  C_25
REMARK   12  A    between atoms: C_13  and  C_27
REMARK   13  A    between atoms: C_14  and  C_20
REMARK   14  A    between atoms: C_14  and  C_24
REMARK   15  A    between atoms: C_16  and  C_25
REMARK   16  A    between atoms: O_21  and  C_24
REMARK                            x       y       z     vdW  Elec       q    Type
REMARK                         _______ _______ _______ _____ _____    ______ ____
ROOT
ATOM      1  N   UNL     1       4.473  55.599  21.075  0.00  0.00    +0.000 N 
ATOM      2  H   UNL     1       4.304  56.260  20.317  0.00  0.00    +0.000 HD
ATOM      3  H   UNL     1       5.374  55.129  20.985  0.00  0.00    +0.000 HD
ENDROOT
BRANCH   1   6
ATOM      4  C   UNL     1       2.591  54.687  22.299  0.00  0.00    +0.000 C 
ATOM      5  C   UNL     1       0.579  53.791  21.059  0.00  0.00    +0.000 C 
ATOM      6  C   UNL     1       3.439  54.559  21.025  0.00  0.00    +0.000 C 
ATOM      7  C   UNL     1       2.538  54.678  19.787  0.00  0.00    +0.000 C 
ATOM      8  C   UNL     1       1.437  53.688  22.318  0.00  0.00    +0.000 C 
ATOM      9  C   UNL     1       1.394  53.627  19.750  0.00  0.00    +0.000 C 
BRANCH   9  10
ATOM     10  C   UNL     1       1.951  52.157  19.538  0.00  0.00    +0.000 C 
ATOM     11  C   UNL     1       1.407  51.505  18.258  0.00  0.00    +0.000 C 
BRANCH  10  12
ATOM     12  N   UNL     1       1.603  51.226  20.642  0.00  0.00    +0.000 N 
ATOM     13  H   UNL     1       0.831  50.635  20.332  0.00  0.00    +0.000 HD
ATOM     14  H   UNL     1       1.357  51.800  21.448  0.00  0.00    +0.000 HD
BRANCH  12  16
ATOM     15  C   UNL     1       4.076  50.927  20.704  0.00  0.00    +0.000 C 
ATOM     16  C   UNL     1       2.708  50.361  21.058  0.00  0.00    +0.000 C 
ENDBRANCH  12  16
ENDBRANCH  10  12
ENDBRANCH   9  10
BRANCH   9  17
ATOM     17  O   UNL     1       0.590  54.033  18.613  0.00  0.00    +0.000 OA
BRANCH  17  18
ATOM     18  O   UNL     1       1.353  54.993  17.827  0.00  0.00    +0.000 OA
ATOM     19  H   UNL     1       1.062  54.958  16.902  0.00  0.00    +0.000 HD
ENDBRANCH  17  18
ENDBRANCH   9  17
ENDBRANCH   1   6
BRANCH   1  20
ATOM     20  C   UNL     1       4.497  56.340  22.340  0.00  0.00    +0.000 C 
BRANCH  20  23
ATOM     21  N   UNL     1       5.387  58.134  20.796  0.00  0.00    +0.000 N 
ATOM     22  C   UNL     1       5.674  59.585  20.846  0.00  0.00    +0.000 C 
ATOM     23  C   UNL     1       5.273  57.667  22.199  0.00  0.00    +0.000 C 
ATOM     24  C   UNL     1       5.670  59.965  22.331  0.00  0.00    +0.000 C 
ATOM     25  C   UNL     1       7.013  59.825  20.155  0.00  0.00    +0.000 C 
ATOM     26  C   UNL     1       4.732  58.902  22.948  0.00  0.00    +0.000 C 
ATOM     27  H   UNL     1       6.147  57.642  20.325  0.00  0.00    +0.000 HD
ATOM     28  H   UNL     1       4.528  57.949  20.279  0.00  0.00    +0.000 HD
BRANCH  26  29
ATOM     29  C   UNL     1       3.228  59.190  22.687  0.00  0.00    +0.000 C 
ATOM     30  C   UNL     1       2.420  59.347  23.969  0.00  0.00    +0.000 C 
ENDBRANCH  26  29
BRANCH  24  32
ATOM     31  O   UNL     1       5.423  61.825  23.846  0.00  0.00    +0.000 OA
ATOM     32  C   UNL     1       5.307  61.401  22.690  0.00  0.00    +0.000 C 
BRANCH  32  33
ATOM     33  C   UNL     1       4.924  62.366  21.576  0.00  0.00    +0.000 C 
BRANCH  33  34
ATOM     34  O   UNL     1       6.036  63.151  21.166  0.00  0.00    +0.000 OA
ATOM     35  H   UNL     1       5.980  64.030  21.574  0.00  0.00    +0.000 HD
ENDBRANCH  33  34
ENDBRANCH  32  33
ENDBRANCH  24  32
ENDBRANCH  20  23
ENDBRANCH   1  20
TORSDOF 12
ENDMDL

MODEL 96
ROOT
ATOM      1  C   UNL     1       0.000   0.000   0.000  0.00  0.00    +0.000 C
ENDROOT
TORSDOF 0
ENDMDL

MODEL 97
REMARK VINA RESULT:      -6.6      0.000      0.000
REMARK  Name = 
REMARK  14 active torsions:
REMARK  status: ('A' for Active; 'I' for Inactive)
REMARK    1  A    between atoms: C_2  and  C_25
REMARK    2  A    between atoms: C_3  and  O_12
REMARK    3  A    between atoms: C_4  and  C_26
REMARK    4  A    between atoms: S_6  and  C_10
REMARK    5  A    between atoms: S_6  and  O_21
REMARK    6  A    between atoms: C_8  and  C_26
REMARK    7  A    between atoms: C_9  and  C_11
REMARK    8  A    between atoms: C_11  and  C_22
REMARK    9  A    between atoms: C_13  and  C_18
REMARK   10  A    between atoms: C_14  and  N_16
REMARK   11  A    between atoms: C_14  and  C_20
REMARK   12  A    between atoms: N_17  and  C_24
REMARK   13  A    between atoms: C_19  and  C_20
REMARK   14  A    between atoms: C_20  and  O_21
REMARK                            x       y       z     vdW  Elec       q    Type
REMARK                         _______ _______ _______ _____ _____    ______ ____
ROOT
ATOM      1  N   UNL     1       5.244  58.745  22.535  0.00  0.00    +0.000 N 
ATOM      2  C   UNL     1       4.684  57.635  21.932  0.00  0.00    +0.000 C 
ATOM      3  O   UNL     1       4.121  57.620  20.843  0.00  0.00    +0.000 OA
ATOM      4  H   UNL     1       5.652  58.586  23.416  0.00  0.00    +0.000 HD
ENDROOT
BRANCH   2   5
ATOM      5  C   UNL     1       4.906  56.354  22.786  0.00  0.00    +0.000 C 
ATOM      6  N   UNL     1       5.498  56.738  24.105  0.00  0.00    +0.000 N 
ATOM      7  C   UNL     1       3.094  56.461  24.318  0.00  0.00    +0.000 C 
ATOM      8  C   UNL     1       4.343  57.070  24.984  0.00  0.00    +0.000 C 
ATOM      9  C   UNL     1       4.648  56.618  26.410  0.00  0.00    +0.000 C 
ATOM     10  C   UNL     1       3.666  55.569  23.210  0.00  0.00    +0.000 C 
ATOM     11  H   UNL     1       6.109  57.548  23.998  0.00  0.00    +0.000 HD
ATOM     12  H   UNL     1       6.064  55.985  24.496  0.00  0.00    +0.000 HD
BRANCH   7  15
ATOM     13  O   UNL     1       2.202  54.514  25.432  0.00  0.00    +0.000 OA
ATOM     14  C   UNL     1       1.169  56.583  26.025  0.00  0.00    +0.000 C 
ATOM     15  C   UNL     1       2.158  55.734  25.268  0.00  0.00    +0.000 C 
ENDBRANCH   7  15
BRANCH  10  17
ATOM     16  C   UNL     1       3.143  54.097  21.202  0.00  0.00    +0.000 C 
ATOM     17  C   UNL     1       2.643  55.190  22.134  0.00  0.00    +0.000 C 
ENDBRANCH  10  17
ENDBRANCH   2   5
BRANCH   1  23
ATOM     18  C   UNL     1       4.380  60.977  22.588  0.00  0.00    +0.000 A 
ATOM     19  C   UNL     1       6.250  60.518  21.135  0.00  0.00    +0.000 A 
ATOM     20  C   UNL     1       6.245  61.856  20.720  0.00  0.00    +0.000 A 
ATOM     21  C   UNL     1       5.304  62.748  21.250  0.00  0.00    +0.000 A 
ATOM     22  C   UNL     1       4.368  62.310  22.187  0.00  0.00    +0.000 A 
ATOM     23  C   UNL     1       5.314  60.068  22.066  0.00  0.00    +0.000 A 
BRANCH  18  24
ATOM     24  O   UNL     1       3.470  60.521  23.507  0.00  0.00    +0.000 OA
ATOM     25  H   UNL     1       2.600  60.871  23.518  0.00  0.00    +0.000 HD
ENDBRANCH  18  24
BRANCH  20  26
ATOM     26  S   UNL     1       7.452  62.411  19.523  0.00  0.00    +0.000 S 
BRANCH  26  27
ATOM     27  O   UNL     1       7.164  61.267  18.343  0.00  0.00    +0.000 OA
BRANCH  27  29
ATOM     28  C   UNL     1       8.802  61.556  16.613  0.00  0.00    +0.000 C 
ATOM     29  C   UNL     1       8.337  60.673  17.767  0.00  0.00    +0.000 C 
BRANCH  29  30
ATOM     30  C   UNL     1       7.945  59.256  17.299  0.00  0.00    +0.000 C 
BRANCH  30  31
ATOM     31  N   UNL     1       8.559  58.823  16.042  0.00  0.00    +0.000 N 
ATOM     32  H   UNL     1       7.855  58.826  15.302  0.00  0.00    +0.000 HD
ATOM     33  H   UNL     1       8.931  57.880  16.152  0.00  0.00    +0.000 HD
ATOM     34  H   UNL     1       9.314  59.461  15.794  0.00  0.00    +0.000 HD
ENDBRANCH  30  31
ENDBRANCH  29  30
ENDBRANCH  27  29
ENDBRANCH  26  27
ENDBRANCH  20  26
ENDBRANCH   1  23
TORSDOF 10
ENDMDL

MODEL 98
ROOT
ATOM      1  C   UNL     1       0.000   0.000   0.000  0.00  0.00    +0.000 C
ENDROOT
TORSDOF 0
ENDMDL

MODEL 99
REMARK VINA RESULT:      -6.5      0.000      0.000
REMARK  Name = 
REMARK  15 active torsions:
REMARK  status: ('A' for Active; 'I' for Inactive)
REMARK    1  A    between atoms: C_1  and  C_11
REMARK    2  A    between atoms: C_1  and  O_21
REMARK    3  A    between atoms: C_2  and  C_14
REMARK    4  A    between atoms: C_5  and  C_22
REMARK    5  A    between atoms: C_6  and  C_26
REMARK    6  A    between atoms: C_8  and  C_22
REMARK    7  A    between atoms: N_9  and  O_17
REMARK    8  A    between atoms: N_9  and  C_19
REMARK    9  A    between atoms: N_9  and  C_24
REMARK   10  A    between atoms: C_10  and  O_13
REMARK   11  A    between atoms: C_11  and  C_25
REMARK   12  A    between atoms: N_12  and  C_16
REMARK   13  A    between atoms: O_13  and  C_16
REMARK   14  A    between atoms: C_16  and  C_26
REMARK   15  A    between atoms: C_18  and  C_26
REMARK                            x       y       z     vdW  Elec       q    Type
REMARK                         _______ _______ _______ _____ _____    ______ ____
ROOT
ATOM      1  N   UNL     1       3.528  58.348  24.904  0.00  0.00    +0.000 N 
ENDROOT
BRANCH   1   6
ATOM      2  C   UNL     1       4.134  59.291  28.051  0.00  0.00    +0.000 C 
ATOM      3  C   UNL     1       5.573  58.928  26.165  0.00  0.00    +0.000 C 
ATOM      4  C   UNL     1       2.910  60.070  28.521  0.00  0.00    +0.000 C 
ATOM      5  N   UNL     1       3.707  58.037  27.397  0.00  0.00    +0.000 N 
ATOM      6  C   UNL     1       4.361  57.971  26.059  0.00  0.00    +0.000 C 
ATOM      7  C   UNL     1       4.967  60.049  27.019  0.00  0.00    +0.000 C 
ATOM      8  H   UNL     1       2.694  58.031  27.289  0.00  0.00    +0.000 HD
ATOM      9  H   UNL     1       3.977  57.233  27.964  0.00  0.00    +0.000 HD
BRANCH   7  11
ATOM     10  O   UNL     1       6.903  60.714  28.264  0.00  0.00    +0.000 OA
ATOM     11  C   UNL     1       5.968  61.066  27.534  0.00  0.00    +0.000 C 
BRANCH  11  12
ATOM     12  C   UNL     1       5.813  62.540  27.177  0.00  0.00    +0.000 C 
BRANCH  12  13
ATOM     13  O   UNL     1       4.910  62.720  26.095  0.00  0.00    +0.000 OA
ATOM     14  H   UNL     1       4.062  63.047  26.433  0.00  0.00    +0.000 HD
ENDBRANCH  12  13
ENDBRANCH  11  12
ENDBRANCH   7  11
BRANCH   3  16
ATOM     15  C   UNL     1       6.961  56.765  26.275  0.00  0.00    +0.000 C 
ATOM     16  C   UNL     1       6.786  58.190  26.782  0.00  0.00    +0.000 C 
ENDBRANCH   3  16
ENDBRANCH   1   6
BRANCH   1  20
ATOM     17  C   UNL     1       4.143  59.424  22.817  0.00  0.00    +0.000 A 
ATOM     18  C   UNL     1       4.239  57.041  22.939  0.00  0.00    +0.000 A 
ATOM     19  C   UNL     1       4.579  59.405  21.482  0.00  0.00    +0.000 A 
ATOM     20  C   UNL     1       3.955  58.254  23.575  0.00  0.00    +0.000 A 
ATOM     21  C   UNL     1       4.843  58.181  20.885  0.00  0.00    +0.000 A 
ATOM     22  C   UNL     1       4.675  57.002  21.611  0.00  0.00    +0.000 A 
BRANCH  19  23
ATOM     23  O   UNL     1       4.695  60.644  20.925  0.00  0.00    +0.000 OA
BRANCH  23  24
ATOM     24  C   UNL     1       5.843  61.483  21.056  0.00  0.00    +0.000 C 
BRANCH  24  25
ATOM     25  N   UNL     1       5.515  62.780  21.639  0.00  0.00    +0.000 N 
ATOM     26  H   UNL     1       5.195  62.651  22.599  0.00  0.00    +0.000 HD
ATOM     27  H   UNL     1       4.777  63.222  21.092  0.00  0.00    +0.000 HD
ATOM     28  H   UNL     1       6.343  63.375  21.634  0.00  0.00    +0.000 HD
ENDBRANCH  24  25
BRANCH  24  31
ATOM     29  C   UNL     1       7.771  60.389  19.814  0.00  0.00    +0.000 C 
ATOM     30  C   UNL     1       7.494  62.876  19.697  0.00  0.00    +0.000 C 
ATOM     31  C   UNL     1       6.753  61.536  19.802  0.00  0.00    +0.000 C 
ENDBRANCH  24  31
ENDBRANCH  23  24
ENDBRANCH  19  23
ENDBRANCH   1  20
BRANCH   1  32
ATOM     32  O   UNL     1       2.153  58.377  25.197  0.00  0.00    +0.000 OA
ATOM     33  H   UNL     1       1.646  58.338  24.372  0.00  0.00    +0.000 HD
ENDBRANCH   1  32
TORSDOF 11
ENDMDL

MODEL 100
ROOT
ATOM      1  C   UNL     1       0.000   0.000   0.000  0.00  0.00    +0.000 C
ENDROOT
TORSDOF 0
ENDMDL

