=
 OpenBabel12172413093D

 25 26  0  0  1  0  0  0  0  0999 V2000
    5.5890   60.7480   22.1160 C   0  0  1  0  0  3  0  0  0  0  0  0
    5.9710   61.3980   20.7760 C   0  0  1  0  0  3  0  0  0  0  0  0
    7.7100   61.3210   19.0370 C   0  0  1  0  0  3  0  0  0  0  0  0
    6.8900   62.6150   20.8700 C   0  0  0  0  0  2  0  0  0  0  0  0
    7.4130   62.7600   19.4500 C   0  0  0  0  0  2  0  0  0  0  0  0
    6.5970   60.4950   19.6980 C   0  0  0  0  0  2  0  0  0  0  0  0
    7.6700   61.1180   17.6300 O   0  0  0  0  0  0  0  0  0  0  0  0
    8.8750   60.5900   17.0910 C   0  0  1  0  0  3  0  0  0  0  0  0
    7.2860   58.9710   15.9520 C   0  0  0  0  0  1  0  0  0  0  0  0
    8.6130   59.1410   16.6760 C   0  0  0  0  0  2  0  0  0  0  0  0
    9.2770   61.3570   15.9720 O   0  0  0  0  0  0  0  0  0  0  0  0
    9.4030   62.2800   16.2410 H   0  0  0  0  0  0  0  0  0  0  0  0
    5.7070   61.7070   23.1710 O   0  0  0  0  0  0  0  0  0  0  0  0
    5.1620   61.4300   23.9230 H   0  0  0  0  0  0  0  0  0  0  0  0
    4.2550   59.9770   22.2260 C   0  0  0  0  0  2  0  0  0  0  0  0
    3.9160   58.0890   20.5730 C   0  0  0  0  0  3  0  0  0  0  0  0
    4.6400   57.5490   22.8150 C   0  0  0  0  0  3  0  0  0  0  0  0
    4.3390   55.8060   21.1680 C   0  0  0  0  0  3  0  0  0  0  0  0
    3.9340   56.7350   20.1980 C   0  0  0  0  0  0  0  0  0  0  0  0
    4.6770   56.2020   22.4650 C   0  0  0  0  0  3  0  0  0  0  0  0
    4.2770   58.5100   21.8680 C   0  0  0  0  0  0  0  0  0  0  0  0
    3.6100   56.3120   18.8900 N   0  0  0  0  0  0  0  0  0  0  0  0
    2.4760   55.4010   18.7410 C   0  0  0  0  0  1  0  0  0  0  0  0
    4.6460   55.9650   18.0140 O   0  0  0  0  0  0  0  0  0  0  0  0
    5.5000   56.1260   18.4430 H   0  0  0  0  0  0  0  0  0  0  0  0
  1 15  1  6  0  0  0
  1 13  1  0  0  0  0
  2  4  1  0  0  0  0
  2  1  1  1  0  0  0
  3  7  1  6  0  0  0
  3  5  1  0  0  0  0
  3  6  1  0  0  0  0
  5  4  1  0  0  0  0
  6  2  1  0  0  0  0
  8 10  1  6  0  0  0
  8  7  1  0  0  0  0
  9 10  1  0  0  0  0
 11 12  1  0  0  0  0
 11  8  1  0  0  0  0
 13 14  1  0  0  0  0
 16 21  1  0  0  0  0
 18 20  2  0  0  0  0
 19 16  2  0  0  0  0
 19 18  1  0  0  0  0
 20 17  1  0  0  0  0
 21 15  1  0  0  0  0
 21 17  2  0  0  0  0
 22 19  1  0  0  0  0
 23 22  1  0  0  0  0
 24 25  1  0  0  0  0
 24 22  1  0  0  0  0
M  END
>  <MODEL>
1

>  <REMARK>
 VINA RESULT:      -7.5      0.000      0.000
  Name = 
  12 active torsions:
  status: ('A' for Active; 'I' for Inactive)
    1  A    between atoms: C_1  and  C_11
    2  A    between atoms: C_2  and  O_12
    3  A    between atoms: C_2  and  O_16
    4  A    between atoms: C_2  and  C_19
    5  A    between atoms: N_5  and  C_9
    6  A    between atoms: N_5  and  C_10
    7  A    between atoms: N_5  and  O_17
    8  A    between atoms: C_6  and  O_12
    9  A    between atoms: C_11  and  O_14
   10  A    between atoms: C_11  and  C_22
   11  A    between atoms: C_15  and  C_19
   12  A    between atoms: C_21  and  C_22
                            x       y       z     vdW  Elec       q    Type
                         _______ _______ _______ _____ _____    ______ ____

>  <TORSDO>
F 10

$$$$
=
 OpenBabel12172413093D

 25 26  0  0  1  0  0  0  0  0999 V2000
    4.9630   57.3400   21.6830 C   0  0  1  0  0  3  0  0  0  0  0  0
    4.4240   56.9050   23.0320 C   0  0  0  0  0  0  0  0  0  0  0  0
    4.6230   56.8060   25.4670 C   0  0  0  0  0  0  0  0  0  0  0  0
    3.2370   56.1690   23.1150 C   0  0  0  0  0  3  0  0  0  0  0  0
    5.1090   57.2130   24.2190 C   0  0  0  0  0  3  0  0  0  0  0  0
    2.7500   55.7550   24.3550 C   0  0  0  0  0  3  0  0  0  0  0  0
    3.4400   56.0730   25.5280 C   0  0  0  0  0  3  0  0  0  0  0  0
    5.4070   57.1800   26.5230 O   0  0  0  0  0  0  0  0  0  0  0  0
    6.3480   58.2330   26.3480 C   0  0  1  0  0  3  0  0  0  0  0  0
    5.8780   59.5000   27.0700 C   0  0  0  0  0  2  0  0  0  0  0  0
    5.1720   60.4730   26.1370 C   0  0  0  0  0  1  0  0  0  0  0  0
    7.5830   57.8000   26.9160 O   0  0  0  0  0  0  0  0  0  0  0  0
    7.5250   56.8560   27.1330 H   0  0  0  0  0  0  0  0  0  0  0  0
    4.6200   56.3610   20.6960 O   0  0  0  0  0  0  0  0  0  0  0  0
    4.6220   55.4790   21.1020 H   0  0  0  0  0  0  0  0  0  0  0  0
    4.4360   58.7110   21.2190 C   0  0  0  0  0  2  0  0  0  0  0  0
    7.7700   59.9590   19.8640 C   0  0  0  0  0  3  0  0  0  0  0  0
    6.4580   61.8810   20.4560 C   0  0  0  0  0  0  0  0  0  0  0  0
    6.3550   63.2170   20.5340 F   0  0  0  0  0  0  0  0  0  0  0  0
    5.5310   59.6720   20.8000 C   0  0  0  0  0  0  0  0  0  0  0  0
    6.7270   59.1340   20.2870 C   0  0  0  0  0  3  0  0  0  0  0  0
    7.6340   61.3390   19.9510 C   0  0  0  0  0  3  0  0  0  0  0  0
    5.3890   61.0740   20.8810 C   0  0  0  0  0  0  0  0  0  0  0  0
    4.1610   61.7530   21.4390 C   0  0  0  0  0  2  0  0  0  0  0  0
    4.3320   62.1180   22.9070 C   0  0  0  0  0  1  0  0  0  0  0  0
  1 16  1  6  0  0  0
  1  2  1  0  0  0  0
  2  4  2  0  0  0  0
  2  5  1  0  0  0  0
  3  7  1  0  0  0  0
  3  8  1  0  0  0  0
  4  6  1  0  0  0  0
  5  3  2  0  0  0  0
  6  7  2  0  0  0  0
  9  8  1  0  0  0  0
  9 12  1  0  0  0  0
  9 10  1  1  0  0  0
 11 10  1  0  0  0  0
 12 13  1  0  0  0  0
 14 15  1  0  0  0  0
 14  1  1  0  0  0  0
 17 22  2  0  0  0  0
 17 21  1  0  0  0  0
 18 19  1  0  0  0  0
 18 23  2  0  0  0  0
 20 23  1  0  0  0  0
 20 16  1  0  0  0  0
 21 20  2  0  0  0  0
 22 18  1  0  0  0  0
 23 24  1  0  0  0  0
 24 25  1  0  0  0  0
M  END
>  <MODEL>
1

>  <REMARK>
 VINA RESULT:      -7.2      0.000      0.000
  Name = 
  11 active torsions:
  status: ('A' for Active; 'I' for Inactive)
    1  A    between atoms: C_1  and  C_20
    2  A    between atoms: C_3  and  C_8
    3  A    between atoms: C_3  and  O_13
    4  A    between atoms: C_3  and  O_15
    5  A    between atoms: C_6  and  O_15
    6  A    between atoms: C_7  and  C_11
    7  A    between atoms: C_8  and  C_18
    8  A    between atoms: C_11  and  C_20
    9  A    between atoms: C_14  and  C_21
   10  A    between atoms: C_14  and  C_22
   11  A    between atoms: O_17  and  C_20
                            x       y       z     vdW  Elec       q    Type
                         _______ _______ _______ _____ _____    ______ ____

>  <TORSDO>
F 9

$$$$
