MODEL 1
REMARK VINA RESULT:      -7.5      0.000      0.000
REMARK  Name = 
REMARK  12 active torsions:
REMARK  status: ('A' for Active; 'I' for Inactive)
REMARK    1  A    between atoms: C_1  and  C_11
REMARK    2  A    between atoms: C_2  and  O_12
REMARK    3  A    between atoms: C_2  and  O_16
REMARK    4  A    between atoms: C_2  and  C_19
REMARK    5  A    between atoms: N_5  and  C_9
REMARK    6  A    between atoms: N_5  and  C_10
REMARK    7  A    between atoms: N_5  and  O_17
REMARK    8  A    between atoms: C_6  and  O_12
REMARK    9  A    between atoms: C_11  and  O_14
REMARK   10  A    between atoms: C_11  and  C_22
REMARK   11  A    between atoms: C_15  and  C_19
REMARK   12  A    between atoms: C_21  and  C_22
REMARK                            x       y       z     vdW  Elec       q    Type
REMARK                         _______ _______ _______ _____ _____    ______ ____
ROOT
ATOM      1  C   UNL     1       5.589  60.748  22.116  0.00  0.00    +0.000 C 
ENDROOT
BRANCH   1   2
ATOM      2  C   UNL     1       5.971  61.398  20.776  0.00  0.00    +0.000 C 
ATOM      3  C   UNL     1       7.710  61.321  19.037  0.00  0.00    +0.000 C 
ATOM      4  C   UNL     1       6.890  62.615  20.870  0.00  0.00    +0.000 C 
ATOM      5  C   UNL     1       7.413  62.760  19.450  0.00  0.00    +0.000 C 
ATOM      6  C   UNL     1       6.597  60.495  19.698  0.00  0.00    +0.000 C 
BRANCH   3   7
ATOM      7  O   UNL     1       7.670  61.118  17.630  0.00  0.00    +0.000 OA
BRANCH   7   8
ATOM      8  C   UNL     1       8.875  60.590  17.091  0.00  0.00    +0.000 C 
BRANCH   8  10
ATOM      9  C   UNL     1       7.286  58.971  15.952  0.00  0.00    +0.000 C 
ATOM     10  C   UNL     1       8.613  59.141  16.676  0.00  0.00    +0.000 C 
ENDBRANCH   8  10
BRANCH   8  11
ATOM     11  O   UNL     1       9.277  61.357  15.972  0.00  0.00    +0.000 OA
ATOM     12  H   UNL     1       9.403  62.280  16.241  0.00  0.00    +0.000 HD
ENDBRANCH   8  11
ENDBRANCH   7   8
ENDBRANCH   3   7
ENDBRANCH   1   2
BRANCH   1  13
ATOM     13  O   UNL     1       5.707  61.707  23.171  0.00  0.00    +0.000 OA
ATOM     14  H   UNL     1       5.162  61.430  23.923  0.00  0.00    +0.000 HD
ENDBRANCH   1  13
BRANCH   1  15
ATOM     15  C   UNL     1       4.255  59.977  22.226  0.00  0.00    +0.000 C 
BRANCH  15  21
ATOM     16  C   UNL     1       3.916  58.089  20.573  0.00  0.00    +0.000 A 
ATOM     17  C   UNL     1       4.640  57.549  22.815  0.00  0.00    +0.000 A 
ATOM     18  C   UNL     1       4.339  55.806  21.168  0.00  0.00    +0.000 A 
ATOM     19  C   UNL     1       3.934  56.735  20.198  0.00  0.00    +0.000 A 
ATOM     20  C   UNL     1       4.677  56.202  22.465  0.00  0.00    +0.000 A 
ATOM     21  C   UNL     1       4.277  58.510  21.868  0.00  0.00    +0.000 A 
BRANCH  19  22
ATOM     22  N   UNL     1       3.610  56.312  18.890  0.00  0.00    +0.000 N 
ATOM     23  C   UNL     1       2.476  55.401  18.741  0.00  0.00    +0.000 C 
BRANCH  22  24
ATOM     24  O   UNL     1       4.646  55.965  18.014  0.00  0.00    +0.000 OA
ATOM     25  H   UNL     1       5.500  56.126  18.443  0.00  0.00    +0.000 HD
ENDBRANCH  22  24
ENDBRANCH  19  22
ENDBRANCH  15  21
ENDBRANCH   1  15
TORSDOF 10
ENDMDL

MODEL 2
REMARK VINA RESULT:      -7.2      0.000      0.000
REMARK  Name = 
REMARK  11 active torsions:
REMARK  status: ('A' for Active; 'I' for Inactive)
REMARK    1  A    between atoms: C_1  and  C_20
REMARK    2  A    between atoms: C_3  and  C_8
REMARK    3  A    between atoms: C_3  and  O_13
REMARK    4  A    between atoms: C_3  and  O_15
REMARK    5  A    between atoms: C_6  and  O_15
REMARK    6  A    between atoms: C_7  and  C_11
REMARK    7  A    between atoms: C_8  and  C_18
REMARK    8  A    between atoms: C_11  and  C_20
REMARK    9  A    between atoms: C_14  and  C_21
REMARK   10  A    between atoms: C_14  and  C_22
REMARK   11  A    between atoms: O_17  and  C_20
REMARK                            x       y       z     vdW  Elec       q    Type
REMARK                         _______ _______ _______ _____ _____    ______ ____
ROOT
ATOM      1  C   UNL     1       4.963  57.340  21.683  0.00  0.00    +0.000 C 
ENDROOT
BRANCH   1   2
ATOM      2  C   UNL     1       4.424  56.905  23.032  0.00  0.00    +0.000 A 
ATOM      3  C   UNL     1       4.623  56.806  25.467  0.00  0.00    +0.000 A 
ATOM      4  C   UNL     1       3.237  56.169  23.115  0.00  0.00    +0.000 A 
ATOM      5  C   UNL     1       5.109  57.213  24.219  0.00  0.00    +0.000 A 
ATOM      6  C   UNL     1       2.750  55.755  24.355  0.00  0.00    +0.000 A 
ATOM      7  C   UNL     1       3.440  56.073  25.528  0.00  0.00    +0.000 A 
BRANCH   3   8
ATOM      8  O   UNL     1       5.407  57.180  26.523  0.00  0.00    +0.000 OA
BRANCH   8   9
ATOM      9  C   UNL     1       6.348  58.233  26.348  0.00  0.00    +0.000 C 
BRANCH   9  10
ATOM     10  C   UNL     1       5.878  59.500  27.070  0.00  0.00    +0.000 C 
ATOM     11  C   UNL     1       5.172  60.473  26.137  0.00  0.00    +0.000 C 
ENDBRANCH   9  10
BRANCH   9  12
ATOM     12  O   UNL     1       7.583  57.800  26.916  0.00  0.00    +0.000 OA
ATOM     13  H   UNL     1       7.525  56.856  27.133  0.00  0.00    +0.000 HD
ENDBRANCH   9  12
ENDBRANCH   8   9
ENDBRANCH   3   8
ENDBRANCH   1   2
BRANCH   1  14
ATOM     14  O   UNL     1       4.620  56.361  20.696  0.00  0.00    +0.000 OA
ATOM     15  H   UNL     1       4.622  55.479  21.102  0.00  0.00    +0.000 HD
ENDBRANCH   1  14
BRANCH   1  16
ATOM     16  C   UNL     1       4.436  58.711  21.219  0.00  0.00    +0.000 C 
BRANCH  16  20
ATOM     17  C   UNL     1       7.770  59.959  19.864  0.00  0.00    +0.000 A 
ATOM     18  C   UNL     1       6.458  61.881  20.456  0.00  0.00    +0.000 A 
ATOM     19  F   UNL     1       6.355  63.217  20.534  0.00  0.00    +0.000 F 
ATOM     20  C   UNL     1       5.531  59.672  20.800  0.00  0.00    +0.000 A 
ATOM     21  C   UNL     1       6.727  59.134  20.287  0.00  0.00    +0.000 A 
ATOM     22  C   UNL     1       7.634  61.339  19.951  0.00  0.00    +0.000 A 
ATOM     23  C   UNL     1       5.389  61.074  20.881  0.00  0.00    +0.000 A 
BRANCH  23  24
ATOM     24  C   UNL     1       4.161  61.753  21.439  0.00  0.00    +0.000 C 
ATOM     25  C   UNL     1       4.332  62.118  22.907  0.00  0.00    +0.000 C 
ENDBRANCH  23  24
ENDBRANCH  16  20
ENDBRANCH   1  16
TORSDOF 9
ENDMDL

