
     RDKit          3D

 22 23  0  0  0  0  0  0  0  0999 V2000
    5.6570   57.2628   23.2481 C   0  0  0  0  0  0  0  0  0  0  0  0
    5.1381   57.3207   20.8880 C   0  0  0  0  0  0  0  0  0  0  0  0
    2.0920   51.6228   23.3742 O   0  0  0  0  0  0  0  0  0  0  0  0
    1.6069   53.8289   22.8226 O   0  0  0  0  0  0  0  0  0  0  0  0
    4.0657   60.5516   22.4873 N   0  0  0  0  0  0  0  0  0  0  0  0
    2.8423   57.1861   18.7964 O   0  0  0  0  0  0  0  0  0  0  0  0
    4.6133   59.2622   22.3064 C   0  0  0  0  0  0  0  0  0  0  0  0
    2.3977   55.3560   21.1407 C   0  0  0  0  0  0  0  0  0  0  0  0
    0.9209   52.0357   26.0481 C   0  0  0  0  0  0  0  0  0  0  0  0
    1.9026   52.9306   23.8857 C   0  0  0  0  0  0  0  0  0  0  0  0
    3.9433   53.7929   20.1475 C   0  0  0  0  0  0  0  0  0  0  0  0
    4.1851   61.1685   23.7378 O   0  0  0  0  0  0  0  0  0  0  0  0
    5.1202   56.6639   19.5285 C   0  0  0  0  0  0  0  0  0  0  0  0
    5.6716   56.6559   21.9959 C   0  0  0  0  0  0  0  0  0  0  0  0
    4.2630   61.5200   21.4084 C   0  0  0  0  0  0  0  0  0  0  0  0
    2.7540   54.2116   22.0895 C   0  0  0  0  0  0  0  0  0  0  0  0
    0.7015   52.9204   24.8304 C   0  0  0  0  0  0  0  0  0  0  0  0
    3.7644   56.1175   19.0288 C   0  0  0  0  0  0  0  0  0  0  0  0
    3.0712   54.9941   19.8153 C   0  0  0  0  0  0  0  0  0  0  0  0
    3.2128   53.1190   21.2276 N   0  0  0  0  0  0  0  0  0  0  0  0
    4.6280   58.6223   21.0558 C   0  0  0  0  0  0  0  0  0  0  0  0
    5.1226   58.5448   23.3997 C   0  0  0  0  0  0  0  0  0  0  0  0
  1 14  4  0
  1 22  4  0
  2 13  1  0
  2 14  4  0
  2 21  4  0
  3 10  1  0
  4 10  1  0
  4 16  1  0
  5  7  1  0
  5 12  1  0
  5 15  1  0
  6 18  1  0
  7 21  4  0
  7 22  4  0
  8 16  1  0
  8 19  1  0
  9 17  1  0
 10 17  1  0
 11 19  1  0
 11 20  1  0
 13 18  1  0
 16 20  1  0
 18 19  1  0
M  END
$$$$

     RDKit          3D

 20 21  0  0  0  0  0  0  0  0999 V2000
    4.7575   59.4304   22.0552 C   0  0  0  0  0  0  0  0  0  0  0  0
    1.6952   52.0487   23.7822 C   0  0  0  0  0  0  0  0  0  0  0  0
    3.4366   61.4086   22.4524 O   0  0  0  0  0  0  0  0  0  0  0  0
    5.0599   57.1380   21.2579 C   0  0  0  0  0  0  0  0  0  0  0  0
    2.8476   54.9256   20.1733 C   0  0  0  0  0  0  0  0  0  0  0  0
    1.9808   55.6908   21.1879 C   0  0  0  0  0  0  0  0  0  0  0  0
    1.8120   54.7587   22.3870 C   0  0  0  0  0  0  0  0  0  0  0  0
    4.5778   60.9040   21.7600 C   0  0  0  0  0  0  0  0  0  0  0  0
    4.9891   57.6029   23.6379 C   0  0  0  0  0  0  0  0  0  0  0  0
    2.2368   53.3788   21.8929 C   0  0  0  0  0  0  0  0  0  0  0  0
    5.1999   56.1611   20.1142 C   0  0  0  0  0  0  0  0  0  0  0  0
    3.2814   56.8440   18.7529 O   0  0  0  0  0  0  0  0  0  0  0  0
    5.7946   61.7314   22.1513 C   0  0  0  0  0  0  0  0  0  0  0  0
    2.7270   52.5436   22.9318 O   0  0  0  0  0  0  0  0  0  0  0  0
    4.8072   58.9597   23.3751 C   0  0  0  0  0  0  0  0  0  0  0  0
    2.3260   51.1303   24.8103 C   0  0  0  0  0  0  0  0  0  0  0  0
    3.3715   53.7067   20.9286 C   0  0  0  0  0  0  0  0  0  0  0  0
    4.8902   58.5090   21.0050 C   0  0  0  0  0  0  0  0  0  0  0  0
    5.1195   56.6976   22.5856 C   0  0  0  0  0  0  0  0  0  0  0  0
    3.9041   55.7275   19.3951 C   0  0  0  0  0  0  0  0  0  0  0  0
  1  8  1  0
  1 15  4  0
  1 18  4  0
  2 14  1  0
  2 16  1  0
  3  8  1  0
  4 11  1  0
  4 18  4  0
  4 19  4  0
  5  6  1  0
  5 17  1  0
  5 20  1  0
  6  7  1  0
  7 10  1  0
  8 13  1  0
  9 15  4  0
  9 19  4  0
 10 14  1  0
 10 17  1  0
 11 20  1  0
 12 20  1  0
M  END
$$$$

     RDKit          3D

 21 22  0  0  0  0  0  0  0  0999 V2000
    4.3795   54.1832   20.8472 C   0  0  0  0  0  0  0  0  0  0  0  0
    3.4303   56.5473   20.7000 C   0  0  0  0  0  0  0  0  0  0  0  0
    3.1930   53.3871   22.6718 C   0  0  0  0  0  0  0  0  0  0  0  0
   -0.2086   50.8419   22.0980 C   0  0  0  0  0  0  0  0  0  0  0  0
    4.4530   58.4636   23.3681 C   0  0  0  0  0  0  0  0  0  0  0  0
    4.5550   59.8702   19.7920 C   0  0  0  0  0  0  0  0  0  0  0  0
    6.6132   61.1640   21.1528 F   0  0  0  0  0  0  0  0  0  0  0  0
    4.4073   53.1595   21.8928 N   0  0  0  0  0  0  0  0  0  0  0  0
    2.3358   56.0666   19.9117 O   0  0  0  0  0  0  0  0  0  0  0  0
    3.0007   54.9035   22.6770 C   0  0  0  0  0  0  0  0  0  0  0  0
    1.0152   52.6998   23.0342 O   0  0  0  0  0  0  0  0  0  0  0  0
    4.8589   59.5651   21.2405 C   0  0  0  0  0  0  0  0  0  0  0  0
    6.2293   60.0806   23.1973 C   0  0  0  0  0  0  0  0  0  0  0  0
    4.1184   58.6418   22.0111 C   0  0  0  0  0  0  0  0  0  0  0  0
    3.6188   61.0617   19.6480 C   0  0  0  0  0  0  0  0  0  0  0  0
    2.0809   52.7575   22.0344 O   0  0  0  0  0  0  0  0  0  0  0  0
    0.7121   51.3153   23.2057 C   0  0  0  0  0  0  0  0  0  0  0  0
    2.9815   57.8240   21.4379 C   0  0  0  0  0  0  0  0  0  0  0  0
    3.9716   55.4364   21.6144 C   0  0  0  0  0  0  0  0  0  0  0  0
    5.9035   60.2711   21.8593 C   0  0  0  0  0  0  0  0  0  0  0  0
    5.5005   59.1739   23.9562 C   0  0  0  0  0  0  0  0  0  0  0  0
  1  8  1  0
  1 19  1  0
  2  9  1  0
  2 18  1  0
  2 19  1  0
  3  8  1  0
  3 10  1  0
  3 16  1  0
  4 17  1  0
  5 14  4  0
  5 21  4  0
  6 12  1  0
  6 15  1  0
  7 20  1  0
 10 19  1  0
 11 16  1  0
 11 17  1  0
 12 14  4  0
 12 20  4  0
 13 20  4  0
 13 21  4  0
 14 18  1  0
M  END
$$$$

     RDKit          3D

 23 24  0  0  0  0  0  0  0  0999 V2000
    2.4388   53.7534   21.8714 C   0  0  0  0  0  0  0  0  0  0  0  0
    6.8656   60.8343   21.7591 F   0  0  0  0  0  0  0  0  0  0  0  0
    4.9953   58.5342   23.8265 C   0  0  0  0  0  0  0  0  0  0  0  0
    3.9765   58.6110   21.6061 C   0  0  0  0  0  0  0  0  0  0  0  0
    3.4573   55.6012   20.6354 C   0  0  0  0  0  0  0  0  0  0  0  0
    1.2332   51.9726   22.9499 C   0  0  0  0  0  0  0  0  0  0  0  0
    4.9927   60.1469   19.8110 C   0  0  0  0  0  0  0  0  0  0  0  0
    2.3687   56.6918   18.7872 O   0  0  0  0  0  0  0  0  0  0  0  0
    5.9297   59.9439   22.1218 C   0  0  0  0  0  0  0  0  0  0  0  0
    3.3237   56.8830   19.8375 C   0  0  0  0  0  0  0  0  0  0  0  0
    3.7073   53.2425   22.1405 C   0  0  0  0  0  0  0  0  0  0  0  0
    4.0136   58.1193   22.9262 C   0  0  0  0  0  0  0  0  0  0  0  0
    1.3998   52.1714   24.4602 C   0  0  0  0  0  0  0  0  0  0  0  0
    5.9568   59.4514   23.4219 C   0  0  0  0  0  0  0  0  0  0  0  0
    1.4158   50.8540   25.2205 C   0  0  0  0  0  0  0  0  0  0  0  0
   -0.0302   51.3625   22.6941 O   0  0  0  0  0  0  0  0  0  0  0  0
    2.8913   58.0963   20.6811 C   0  0  0  0  0  0  0  0  0  0  0  0
    4.9581   59.5376   21.1928 C   0  0  0  0  0  0  0  0  0  0  0  0
    4.2295   61.4622   19.7511 C   0  0  0  0  0  0  0  0  0  0  0  0
    2.3237   54.9310   21.1250 C   0  0  0  0  0  0  0  0  0  0  0  0
    1.2450   53.2273   22.2770 O   0  0  0  0  0  0  0  0  0  0  0  0
    4.7219   55.0712   20.9161 C   0  0  0  0  0  0  0  0  0  0  0  0
    4.8445   53.9003   21.6637 C   0  0  0  0  0  0  0  0  0  0  0  0
  1 11  4  0
  1 20  4  0
  1 21  1  0
  2  9  1  0
  3 12  4  0
  3 14  4  0
  4 12  4  0
  4 17  1  0
  4 18  4  0
  5 10  1  0
  5 20  4  0
  5 22  4  0
  6 13  1  0
  6 16  1  0
  6 21  1  0
  7 18  1  0
  7 19  1  0
  8 10  1  0
  9 14  4  0
  9 18  4  0
 10 17  1  0
 11 23  4  0
 13 15  1  0
 22 23  4  0
M  END
$$$$
