=
 OpenBabel12172413103D

 27 28  0  0  1  0  0  0  0  0999 V2000
    5.6100   60.7900   22.0390 C   0  0  1  0  0  3  0  0  0  0  0  0
    6.6350   60.4930   19.6380 C   0  0  0  0  0  2  0  0  0  0  0  0
    6.7490   62.6680   20.6740 C   0  0  0  0  0  2  0  0  0  0  0  0
    7.6750   61.3960   18.9750 C   0  0  2  0  0  3  0  0  0  0  0  0
    5.9290   61.3860   20.6600 C   0  0  2  0  0  3  0  0  0  0  0  0
    7.2690   62.7650   19.3050 N   0  0  0  0  0  4  0  0  0  0  0  0
    8.0680   63.3980   19.2660 H   0  0  0  0  0  0  0  0  0  0  0  0
    6.5790   63.1350   18.6510 H   0  0  0  0  0  0  0  0  0  0  0  0
    7.6620   61.1880   17.5760 O   0  0  0  0  0  0  0  0  0  0  0  0
    8.8950   60.6840   17.0790 C   0  0  2  0  0  3  0  0  0  0  0  0
    9.2700   61.3940   15.9100 O   0  0  0  0  0  0  0  0  0  0  0  0
    8.7600   62.2160   15.8540 H   0  0  0  0  0  0  0  0  0  0  0  0
    7.3480   58.9700   16.0270 C   0  0  0  0  0  1  0  0  0  0  0  0
    8.6820   59.2160   16.7150 C   0  0  0  0  0  2  0  0  0  0  0  0
    5.7640   61.7930   23.0480 O   0  0  0  0  0  0  0  0  0  0  0  0
    6.7060   61.9870   23.1700 H   0  0  0  0  0  0  0  0  0  0  0  0
    4.2900   60.0120   22.2390 C   0  0  0  0  0  2  0  0  0  0  0  0
    4.6670   56.2340   22.4920 C   0  0  0  0  0  3  0  0  0  0  0  0
    4.2970   58.5440   21.8850 C   0  0  0  0  0  0  0  0  0  0  0  0
    3.9520   56.7690   20.2170 C   0  0  0  0  0  0  0  0  0  0  0  0
    4.6390   57.5810   22.8400 C   0  0  0  0  0  3  0  0  0  0  0  0
    3.9440   58.1230   20.5900 C   0  0  0  0  0  3  0  0  0  0  0  0
    4.3390   55.8370   21.1930 C   0  0  0  0  0  3  0  0  0  0  0  0
    3.6370   56.3450   18.9060 N   0  0  0  0  0  0  0  0  0  0  0  0
    2.5040   55.4340   18.7520 C   0  0  0  0  0  1  0  0  0  0  0  0
    4.6790   55.9970   18.0390 O   0  0  0  0  0  0  0  0  0  0  0  0
    4.3130   55.5600   17.2530 H   0  0  0  0  0  0  0  0  0  0  0  0
  1 17  1  6  0  0  0
  1 15  1  0  0  0  0
  2  5  1  0  0  0  0
  4  9  1  6  0  0  0
  4  6  1  0  0  0  0
  4  2  1  0  0  0  0
  5  3  1  0  0  0  0
  5  1  1  1  0  0  0
  6  3  1  0  0  0  0
  7  6  1  0  0  0  0
  8  6  1  0  0  0  0
 10 14  1  6  0  0  0
 10  9  1  0  0  0  0
 11 10  1  0  0  0  0
 12 11  1  0  0  0  0
 13 14  1  0  0  0  0
 15 16  1  0  0  0  0
 18 21  1  0  0  0  0
 19 17  1  0  0  0  0
 19 21  2  0  0  0  0
 20 22  2  0  0  0  0
 20 23  1  0  0  0  0
 22 19  1  0  0  0  0
 23 18  2  0  0  0  0
 24 20  1  0  0  0  0
 25 24  1  0  0  0  0
 26 24  1  0  0  0  0
 27 26  1  0  0  0  0
M  END
>  <MODEL>
1

>  <REMARK>
 VINA RESULT:      -7.6      0.000      0.000
  Name = 
  12 active torsions:
  status: ('A' for Active; 'I' for Inactive)
    1  A    between atoms: C_2  and  C_13
    2  A    between atoms: O_3  and  C_10
    3  A    between atoms: O_4  and  C_10
    4  A    between atoms: O_4  and  C_16
    5  A    between atoms: N_5  and  C_7
    6  A    between atoms: N_5  and  O_12
    7  A    between atoms: N_5  and  C_15
    8  A    between atoms: O_6  and  C_18
    9  A    between atoms: C_9  and  C_17
   10  A    between atoms: C_10  and  C_17
   11  A    between atoms: C_13  and  C_18
   12  A    between atoms: C_18  and  C_19
                            x       y       z     vdW  Elec       q    Type
                         _______ _______ _______ _____ _____    ______ ____

>  <TORSDO>
F 10

$$$$
=
 OpenBabel12172413103D

 22 23  0  0  1  0  0  0  0  0999 V2000
    4.7080   60.5770   21.2940 C   0  0  0  0  0  2  0  0  0  0  0  0
    4.2180   56.7810   21.3490 C   0  0  0  0  0  0  0  0  0  0  0  0
    4.6770   59.1450   21.7760 C   0  0  0  0  0  0  0  0  0  0  0  0
    5.0210   57.5000   23.5260 C   0  0  0  0  0  3  0  0  0  0  0  0
    4.6100   56.4850   22.6630 C   0  0  0  0  0  3  0  0  0  0  0  0
    4.2520   58.1160   20.9190 C   0  0  0  0  0  3  0  0  0  0  0  0
    5.0490   58.8230   23.0870 C   0  0  0  0  0  3  0  0  0  0  0  0
    3.7540   55.6880   20.4110 C   0  0  2  0  0  3  0  0  0  0  0  0
    3.9040   54.2980   21.0130 C   0  0  0  0  0  1  0  0  0  0  0  0
    4.4900   55.7420   19.1900 O   0  0  0  0  0  0  0  0  0  0  0  0
    5.1020   54.9900   19.1470 H   0  0  0  0  0  0  0  0  0  0  0  0
    5.9210   61.4360   21.7130 C   0  0  1  0  0  3  0  0  0  0  0  0
    7.0800   61.6290   20.7220 C   0  0  2  0  0  3  0  0  0  0  0  0
    7.3200   63.0470   20.1770 C   0  0  0  0  0  2  0  0  0  0  0  0
    7.6930   62.8770   18.7050 C   0  0  0  0  0  2  0  0  0  0  0  0
    8.0320   61.3990   18.5390 C   0  0  1  0  0  3  0  0  0  0  0  0
    7.0510   60.7240   19.4920 C   0  0  0  0  0  2  0  0  0  0  0  0
    7.8110   60.9230   17.2190 O   0  0  0  0  0  0  0  0  0  0  0  0
    8.7340   59.9090   16.8310 C   0  0  0  0  0  2  0  0  0  0  0  0
    7.9450   58.6850   16.4070 C   0  0  0  0  0  1  0  0  0  0  0  0
    5.4960   62.7100   22.2060 O   0  0  0  0  0  0  0  0  0  0  0  0
    4.9760   62.5850   23.0160 H   0  0  0  0  0  0  0  0  0  0  0  0
  1  3  1  0  0  0  0
  2  5  1  0  0  0  0
  3  7  2  0  0  0  0
  5  4  2  0  0  0  0
  6  2  2  0  0  0  0
  6  3  1  0  0  0  0
  7  4  1  0  0  0  0
  8  9  1  1  0  0  0
  8  2  1  0  0  0  0
 10  8  1  0  0  0  0
 11 10  1  0  0  0  0
 12  1  1  6  0  0  0
 12 21  1  0  0  0  0
 13 12  1  6  0  0  0
 14 13  1  0  0  0  0
 15 14  1  0  0  0  0
 16 18  1  6  0  0  0
 16 15  1  0  0  0  0
 16 17  1  0  0  0  0
 17 13  1  0  0  0  0
 19 18  1  0  0  0  0
 20 19  1  0  0  0  0
 21 22  1  0  0  0  0
M  END
>  <MODEL>
1

>  <REMARK>
 VINA RESULT:      -7.1      0.000      0.000
  Name = 
  10 active torsions:
  status: ('A' for Active; 'I' for Inactive)
    1  A    between atoms: C_1  and  C_8
    2  A    between atoms: C_2  and  O_14
    3  A    between atoms: C_2  and  C_16
    4  A    between atoms: O_3  and  C_8
    5  A    between atoms: C_4  and  C_11
    6  A    between atoms: C_5  and  C_20
    7  A    between atoms: C_8  and  C_13
    8  A    between atoms: C_10  and  O_14
    9  A    between atoms: C_11  and  C_20
   10  A    between atoms: O_12  and  C_20
                            x       y       z     vdW  Elec       q    Type
                         _______ _______ _______ _____ _____    ______ ____

>  <TORSDO>
F 8

$$$$
=
 OpenBabel12172413113D

 24 25  0  0  1  0  0  0  0  0999 V2000
    7.4830   61.8140   19.5900 C   0  0  1  0  0  3  0  0  0  0  0  0
    8.6920   62.0080   17.3510 C   0  0  0  0  0  2  0  0  0  0  0  0
    7.9360   60.0750   16.3190 C   0  0  1  0  0  3  0  0  0  0  0  0
    9.0110   61.0620   16.2810 N   0  0  0  0  0  4  0  0  0  0  0  0
    7.5870   59.9230   17.8000 C   0  0  0  0  0  2  0  0  0  0  0  0
    8.2930   61.0910   18.5020 C   0  0  2  0  0  3  0  0  0  0  0  0
    9.9130   60.6170   16.4530 H   0  0  0  0  0  0  0  0  0  0  0  0
    9.0820   61.5190   15.3710 H   0  0  0  0  0  0  0  0  0  0  0  0
    6.8030   60.5620   15.6000 O   0  0  0  0  0  0  0  0  0  0  0  0
    6.2980   59.4330   14.8190 O   0  0  0  0  0  0  0  0  0  0  0  0
    5.3270   61.4590   13.9370 C   0  0  0  0  0  1  0  0  0  0  0  0
    5.6520   60.0010   13.6780 C   0  0  0  0  0  2  0  0  0  0  0  0
    7.4700   63.2270   19.3580 O   0  0  0  0  0  0  0  0  0  0  0  0
    6.7060   63.6210   19.8060 H   0  0  0  0  0  0  0  0  0  0  0  0
    6.0290   61.3270   19.7390 C   0  0  0  0  0  2  0  0  0  0  0  0
    5.3410   62.1300   22.0150 C   0  0  0  0  0  3  0  0  0  0  0  0
    4.9450   58.3280   23.5140 F   0  0  0  0  0  0  0  0  0  0  0  0
    5.4730   59.7290   21.6700 C   0  0  0  0  0  0  0  0  0  0  0  0
    4.7990   60.6460   23.8320 C   0  0  0  0  0  3  0  0  0  0  0  0
    5.6110   61.0400   21.1640 C   0  0  0  0  0  0  0  0  0  0  0  0
    5.0700   59.5620   23.0050 C   0  0  0  0  0  0  0  0  0  0  0  0
    4.9360   61.9370   23.3360 C   0  0  0  0  0  3  0  0  0  0  0  0
    5.7830   58.4900   20.8620 C   0  0  0  0  0  2  0  0  0  0  0  0
    4.5160   57.7730   20.4150 C   0  0  0  0  0  1  0  0  0  0  0  0
  1 15  1  6  0  0  0
  2  6  1  0  0  0  0
  3  9  1  6  0  0  0
  3  5  1  0  0  0  0
  4  3  1  0  0  0  0
  4  7  1  0  0  0  0
  4  2  1  0  0  0  0
  5  6  1  0  0  0  0
  6  1  1  1  0  0  0
  8  4  1  0  0  0  0
 10  9  1  0  0  0  0
 12 11  1  0  0  0  0
 12 10  1  0  0  0  0
 13  1  1  0  0  0  0
 13 14  1  0  0  0  0
 15 20  1  0  0  0  0
 16 22  1  0  0  0  0
 18 21  2  0  0  0  0
 20 18  1  0  0  0  0
 20 16  2  0  0  0  0
 21 17  1  0  0  0  0
 21 19  1  0  0  0  0
 22 19  2  0  0  0  0
 23 18  1  0  0  0  0
 24 23  1  0  0  0  0
M  END
>  <MODEL>
1

>  <REMARK>
 VINA RESULT:      -7.1      0.000      0.000
  Name = 
  10 active torsions:
  status: ('A' for Active; 'I' for Inactive)
    1  A    between atoms: C_2  and  O_9
    2  A    between atoms: C_2  and  C_18
    3  A    between atoms: C_2  and  C_19
    4  A    between atoms: C_3  and  O_16
    5  A    between atoms: C_4  and  C_17
    6  A    between atoms: C_6  and  C_12
    7  A    between atoms: C_6  and  C_15
    8  A    between atoms: O_11  and  O_16
    9  A    between atoms: O_11  and  C_17
   10  A    between atoms: C_14  and  C_18
                            x       y       z     vdW  Elec       q    Type
                         _______ _______ _______ _____ _____    ______ ____

>  <TORSDO>
F 8

$$$$
=
 OpenBabel12172413113D

 25 26  0  0  1  0  0  0  0  0999 V2000
    5.0060   57.3790   21.6820 C   0  0  1  0  0  3  0  0  0  0  0  0
    4.5580   56.8890   25.4610 C   0  0  0  0  0  0  0  0  0  0  0  0
    4.4510   56.9250   23.0180 C   0  0  0  0  0  0  0  0  0  0  0  0
    3.4400   56.0580   25.4920 C   0  0  0  0  0  3  0  0  0  0  0  0
    5.0580   57.3120   24.2240 C   0  0  0  0  0  3  0  0  0  0  0  0
    3.3280   56.0910   23.0710 C   0  0  0  0  0  3  0  0  0  0  0  0
    2.8270   55.6600   24.2990 C   0  0  0  0  0  3  0  0  0  0  0  0
    5.2630   57.3480   26.5380 O   0  0  0  0  0  0  0  0  0  0  0  0
    6.2930   58.3090   26.3340 C   0  0  1  0  0  3  0  0  0  0  0  0
    5.9720   59.6080   27.0810 C   0  0  0  0  0  2  0  0  0  0  0  0
    5.1500   60.5740   26.2410 C   0  0  0  0  0  1  0  0  0  0  0  0
    7.5020   57.7570   26.8500 O   0  0  0  0  0  0  0  0  0  0  0  0
    8.0240   58.4600   27.2680 H   0  0  0  0  0  0  0  0  0  0  0  0
    4.6890   56.4060   20.6810 O   0  0  0  0  0  0  0  0  0  0  0  0
    5.2810   55.6430   20.7720 H   0  0  0  0  0  0  0  0  0  0  0  0
    4.4730   58.7490   21.2230 C   0  0  0  0  0  2  0  0  0  0  0  0
    6.3730   63.2580   20.5030 F   0  0  0  0  0  0  0  0  0  0  0  0
    7.7990   60.0010   19.8520 C   0  0  0  0  0  3  0  0  0  0  0  0
    5.5630   59.7120   20.7950 C   0  0  0  0  0  0  0  0  0  0  0  0
    6.4810   61.9220   20.4330 C   0  0  0  0  0  0  0  0  0  0  0  0
    6.7610   59.1750   20.2820 C   0  0  0  0  0  3  0  0  0  0  0  0
    7.6580   61.3810   19.9280 C   0  0  0  0  0  3  0  0  0  0  0  0
    5.4170   61.1140   20.8670 C   0  0  0  0  0  0  0  0  0  0  0  0
    4.1870   61.7920   21.4240 C   0  0  0  0  0  2  0  0  0  0  0  0
    4.3400   62.1200   22.9020 C   0  0  0  0  0  1  0  0  0  0  0  0
  1 16  1  6  0  0  0
  1  3  1  0  0  0  0
  2  4  1  0  0  0  0
  2  8  1  0  0  0  0
  3  6  2  0  0  0  0
  3  5  1  0  0  0  0
  5  2  2  0  0  0  0
  6  7  1  0  0  0  0
  7  4  2  0  0  0  0
  9  8  1  0  0  0  0
  9 12  1  0  0  0  0
  9 10  1  1  0  0  0
 11 10  1  0  0  0  0
 12 13  1  0  0  0  0
 14 15  1  0  0  0  0
 14  1  1  0  0  0  0
 18 22  2  0  0  0  0
 18 21  1  0  0  0  0
 19 23  1  0  0  0  0
 19 16  1  0  0  0  0
 20 17  1  0  0  0  0
 20 23  2  0  0  0  0
 21 19  2  0  0  0  0
 22 20  1  0  0  0  0
 23 24  1  0  0  0  0
 24 25  1  0  0  0  0
M  END
>  <MODEL>
1

>  <REMARK>
 VINA RESULT:      -7.2      0.000      0.000
  Name = 
  11 active torsions:
  status: ('A' for Active; 'I' for Inactive)
    1  A    between atoms: C_1  and  O_21
    2  A    between atoms: C_4  and  C_17
    3  A    between atoms: C_5  and  C_10
    4  A    between atoms: C_6  and  C_13
    5  A    between atoms: C_6  and  O_16
    6  A    between atoms: C_6  and  O_21
    7  A    between atoms: C_7  and  C_18
    8  A    between atoms: C_7  and  C_19
    9  A    between atoms: O_8  and  C_10
   10  A    between atoms: C_10  and  C_17
   11  A    between atoms: C_13  and  C_15
                            x       y       z     vdW  Elec       q    Type
                         _______ _______ _______ _____ _____    ______ ____

>  <TORSDO>
F 9

$$$$
