=
 OpenBabel12172413123D

 27 28  0  0  1  0  0  0  0  0999 V2000
    5.7370   60.9930   21.9770 C   0  0  1  0  0  3  0  0  0  0  0  0
    6.6740   60.4170   19.5900 C   0  0  0  0  0  2  0  0  0  0  0  0
    6.9690   62.6590   20.4290 C   0  0  0  0  0  2  0  0  0  0  0  0
    7.7570   61.1820   18.8300 C   0  0  2  0  0  3  0  0  0  0  0  0
    6.0600   61.4440   20.5440 C   0  0  2  0  0  3  0  0  0  0  0  0
    7.4580   62.6000   19.0470 N   0  0  0  0  0  4  0  0  0  0  0  0
    8.2980   63.1670   18.9360 H   0  0  0  0  0  0  0  0  0  0  0  0
    6.7780   62.9620   18.3770 H   0  0  0  0  0  0  0  0  0  0  0  0
    7.6910   60.8570   17.4550 O   0  0  0  0  0  0  0  0  0  0  0  0
    8.9570   60.5110   16.9060 C   0  0  2  0  0  3  0  0  0  0  0  0
    9.2910   61.4070   15.8610 O   0  0  0  0  0  0  0  0  0  0  0  0
   10.2350   61.3260   15.6540 H   0  0  0  0  0  0  0  0  0  0  0  0
    7.4330   58.5390   16.4330 C   0  0  0  0  0  1  0  0  0  0  0  0
    8.8410   59.1020   16.3270 C   0  0  0  0  0  2  0  0  0  0  0  0
    5.8650   62.1000   22.8740 O   0  0  0  0  0  0  0  0  0  0  0  0
    6.7800   62.4220   22.8610 H   0  0  0  0  0  0  0  0  0  0  0  0
    4.4270   60.2190   22.2480 C   0  0  0  0  0  2  0  0  0  0  0  0
    4.8340   56.4530   22.6080 C   0  0  0  0  0  3  0  0  0  0  0  0
    4.4260   58.7410   21.9430 C   0  0  0  0  0  0  0  0  0  0  0  0
    4.0180   56.9100   20.3500 C   0  0  0  0  0  0  0  0  0  0  0  0
    4.8140   57.8110   22.9120 C   0  0  0  0  0  3  0  0  0  0  0  0
    4.0190   58.2760   20.6780 C   0  0  0  0  0  3  0  0  0  0  0  0
    4.4510   56.0130   21.3390 C   0  0  0  0  0  3  0  0  0  0  0  0
    3.6490   56.4420   19.0690 N   0  0  0  0  0  0  0  0  0  0  0  0
    2.5550   55.4730   19.0010 C   0  0  0  0  0  1  0  0  0  0  0  0
    4.6540   56.1250   18.1480 O   0  0  0  0  0  0  0  0  0  0  0  0
    5.4630   56.6090   18.3740 H   0  0  0  0  0  0  0  0  0  0  0  0
  1 17  1  6  0  0  0
  1 15  1  0  0  0  0
  2  5  1  0  0  0  0
  3  5  1  0  0  0  0
  4  9  1  6  0  0  0
  4  6  1  0  0  0  0
  4  2  1  0  0  0  0
  5  1  1  1  0  0  0
  6  3  1  0  0  0  0
  7  6  1  0  0  0  0
  8  6  1  0  0  0  0
 10 14  1  6  0  0  0
 10  9  1  0  0  0  0
 11 10  1  0  0  0  0
 12 11  1  0  0  0  0
 14 13  1  0  0  0  0
 16 15  1  0  0  0  0
 18 21  1  0  0  0  0
 19 17  1  0  0  0  0
 19 21  2  0  0  0  0
 20 22  2  0  0  0  0
 20 23  1  0  0  0  0
 22 19  1  0  0  0  0
 23 18  2  0  0  0  0
 24 20  1  0  0  0  0
 25 24  1  0  0  0  0
 26 27  1  0  0  0  0
 26 24  1  0  0  0  0
M  END
>  <MODEL>
1

>  <REMARK>
 VINA RESULT:      -7.7      0.000      0.000
  Name = 
  12 active torsions:
  status: ('A' for Active; 'I' for Inactive)
    1  A    between atoms: C_2  and  C_13
    2  A    between atoms: O_3  and  C_10
    3  A    between atoms: O_4  and  C_10
    4  A    between atoms: O_4  and  C_16
    5  A    between atoms: N_5  and  C_7
    6  A    between atoms: N_5  and  O_12
    7  A    between atoms: N_5  and  C_15
    8  A    between atoms: O_6  and  C_18
    9  A    between atoms: C_9  and  C_17
   10  A    between atoms: C_10  and  C_17
   11  A    between atoms: C_13  and  C_18
   12  A    between atoms: C_18  and  C_19
                            x       y       z     vdW  Elec       q    Type
                         _______ _______ _______ _____ _____    ______ ____

>  <TORSDO>
F 10

$$$$
=
 OpenBabel12172413133D

 22 23  0  0  1  0  0  0  0  0999 V2000
    4.7450   60.6380   21.1860 C   0  0  0  0  0  2  0  0  0  0  0  0
    4.2210   56.8500   21.3580 C   0  0  0  0  0  0  0  0  0  0  0  0
    4.6900   59.2240   21.7150 C   0  0  0  0  0  0  0  0  0  0  0  0
    4.9730   57.6380   23.5290 C   0  0  0  0  0  3  0  0  0  0  0  0
    4.5760   56.5970   22.6910 C   0  0  0  0  0  3  0  0  0  0  0  0
    4.2780   58.1690   20.8830 C   0  0  0  0  0  3  0  0  0  0  0  0
    5.0240   58.9440   23.0460 C   0  0  0  0  0  3  0  0  0  0  0  0
    3.7730   55.7290   20.4450 C   0  0  2  0  0  3  0  0  0  0  0  0
    3.9820   54.3530   21.0640 C   0  0  0  0  0  1  0  0  0  0  0  0
    4.4790   55.7890   19.2070 O   0  0  0  0  0  0  0  0  0  0  0  0
    4.4040   56.6820   18.8350 H   0  0  0  0  0  0  0  0  0  0  0  0
    5.9580   61.4990   21.6010 C   0  0  1  0  0  3  0  0  0  0  0  0
    7.1690   61.5920   20.6590 C   0  0  2  0  0  3  0  0  0  0  0  0
    7.3730   62.9100   19.8930 C   0  0  0  0  0  2  0  0  0  0  0  0
    7.8510   62.5160   18.4960 C   0  0  0  0  0  2  0  0  0  0  0  0
    8.2750   61.0540   18.6070 C   0  0  1  0  0  3  0  0  0  0  0  0
    7.2670   60.4920   19.6040 C   0  0  0  0  0  2  0  0  0  0  0  0
    8.1660   60.3500   17.3780 O   0  0  0  0  0  0  0  0  0  0  0  0
    7.8890   58.9630   17.5550 C   0  0  0  0  0  2  0  0  0  0  0  0
    7.5540   58.3690   16.2000 C   0  0  0  0  0  1  0  0  0  0  0  0
    5.5410   62.8150   21.9770 O   0  0  0  0  0  0  0  0  0  0  0  0
    6.0270   63.0950   22.7680 H   0  0  0  0  0  0  0  0  0  0  0  0
  1  3  1  0  0  0  0
  2  5  1  0  0  0  0
  3  7  2  0  0  0  0
  5  4  2  0  0  0  0
  6  2  2  0  0  0  0
  6  3  1  0  0  0  0
  7  4  1  0  0  0  0
  8  9  1  1  0  0  0
  8  2  1  0  0  0  0
 10  8  1  0  0  0  0
 11 10  1  0  0  0  0
 12  1  1  6  0  0  0
 12 21  1  0  0  0  0
 13 12  1  6  0  0  0
 14 13  1  0  0  0  0
 15 16  1  0  0  0  0
 15 14  1  0  0  0  0
 16 18  1  6  0  0  0
 16 17  1  0  0  0  0
 17 13  1  0  0  0  0
 18 19  1  0  0  0  0
 20 19  1  0  0  0  0
 21 22  1  0  0  0  0
M  END
>  <MODEL>
1

>  <REMARK>
 VINA RESULT:      -7.1      0.000      0.000
  Name = 
  10 active torsions:
  status: ('A' for Active; 'I' for Inactive)
    1  A    between atoms: C_1  and  C_8
    2  A    between atoms: C_2  and  O_14
    3  A    between atoms: C_2  and  C_16
    4  A    between atoms: O_3  and  C_8
    5  A    between atoms: C_4  and  C_11
    6  A    between atoms: C_5  and  C_20
    7  A    between atoms: C_8  and  C_13
    8  A    between atoms: C_10  and  O_14
    9  A    between atoms: C_11  and  C_20
   10  A    between atoms: O_12  and  C_20
                            x       y       z     vdW  Elec       q    Type
                         _______ _______ _______ _____ _____    ______ ____

>  <TORSDO>
F 8

$$$$
