MODEL 1
REMARK VINA RESULT:      -7.7      0.000      0.000
REMARK  Name = 
REMARK  12 active torsions:
REMARK  status: ('A' for Active; 'I' for Inactive)
REMARK    1  A    between atoms: C_2  and  C_13
REMARK    2  A    between atoms: O_3  and  C_10
REMARK    3  A    between atoms: O_4  and  C_10
REMARK    4  A    between atoms: O_4  and  C_16
REMARK    5  A    between atoms: N_5  and  C_7
REMARK    6  A    between atoms: N_5  and  O_12
REMARK    7  A    between atoms: N_5  and  C_15
REMARK    8  A    between atoms: O_6  and  C_18
REMARK    9  A    between atoms: C_9  and  C_17
REMARK   10  A    between atoms: C_10  and  C_17
REMARK   11  A    between atoms: C_13  and  C_18
REMARK   12  A    between atoms: C_18  and  C_19
REMARK                            x       y       z     vdW  Elec       q    Type
REMARK                         _______ _______ _______ _____ _____    ______ ____
ROOT
ATOM      1  C   UNL     1       5.737  60.993  21.977  0.00  0.00    +0.000 C 
ENDROOT
BRANCH   1   5
ATOM      2  C   UNL     1       6.674  60.417  19.590  0.00  0.00    +0.000 C 
ATOM      3  C   UNL     1       6.969  62.659  20.429  0.00  0.00    +0.000 C 
ATOM      4  C   UNL     1       7.757  61.182  18.830  0.00  0.00    +0.000 C 
ATOM      5  C   UNL     1       6.060  61.444  20.544  0.00  0.00    +0.000 C 
ATOM      6  N   UNL     1       7.458  62.600  19.047  0.00  0.00    +0.000 N 
ATOM      7  H   UNL     1       8.298  63.167  18.936  0.00  0.00    +0.000 HD
ATOM      8  H   UNL     1       6.778  62.962  18.377  0.00  0.00    +0.000 HD
BRANCH   4   9
ATOM      9  O   UNL     1       7.691  60.857  17.455  0.00  0.00    +0.000 OA
BRANCH   9  10
ATOM     10  C   UNL     1       8.957  60.511  16.906  0.00  0.00    +0.000 C 
BRANCH  10  11
ATOM     11  O   UNL     1       9.291  61.407  15.861  0.00  0.00    +0.000 OA
ATOM     12  H   UNL     1      10.235  61.326  15.654  0.00  0.00    +0.000 HD
ENDBRANCH  10  11
BRANCH  10  14
ATOM     13  C   UNL     1       7.433  58.539  16.433  0.00  0.00    +0.000 C 
ATOM     14  C   UNL     1       8.841  59.102  16.327  0.00  0.00    +0.000 C 
ENDBRANCH  10  14
ENDBRANCH   9  10
ENDBRANCH   4   9
ENDBRANCH   1   5
BRANCH   1  15
ATOM     15  O   UNL     1       5.865  62.100  22.874  0.00  0.00    +0.000 OA
ATOM     16  H   UNL     1       6.780  62.422  22.861  0.00  0.00    +0.000 HD
ENDBRANCH   1  15
BRANCH   1  17
ATOM     17  C   UNL     1       4.427  60.219  22.248  0.00  0.00    +0.000 C 
BRANCH  17  19
ATOM     18  C   UNL     1       4.834  56.453  22.608  0.00  0.00    +0.000 A 
ATOM     19  C   UNL     1       4.426  58.741  21.943  0.00  0.00    +0.000 A 
ATOM     20  C   UNL     1       4.018  56.910  20.350  0.00  0.00    +0.000 A 
ATOM     21  C   UNL     1       4.814  57.811  22.912  0.00  0.00    +0.000 A 
ATOM     22  C   UNL     1       4.019  58.276  20.678  0.00  0.00    +0.000 A 
ATOM     23  C   UNL     1       4.451  56.013  21.339  0.00  0.00    +0.000 A 
BRANCH  20  24
ATOM     24  N   UNL     1       3.649  56.442  19.069  0.00  0.00    +0.000 N 
ATOM     25  C   UNL     1       2.555  55.473  19.001  0.00  0.00    +0.000 C 
BRANCH  24  26
ATOM     26  O   UNL     1       4.654  56.125  18.148  0.00  0.00    +0.000 OA
ATOM     27  H   UNL     1       5.463  56.609  18.374  0.00  0.00    +0.000 HD
ENDBRANCH  24  26
ENDBRANCH  20  24
ENDBRANCH  17  19
ENDBRANCH   1  17
TORSDOF 10
ENDMDL

MODEL 2
REMARK VINA RESULT:      -7.1      0.000      0.000
REMARK  Name = 
REMARK  10 active torsions:
REMARK  status: ('A' for Active; 'I' for Inactive)
REMARK    1  A    between atoms: C_1  and  C_8
REMARK    2  A    between atoms: C_2  and  O_14
REMARK    3  A    between atoms: C_2  and  C_16
REMARK    4  A    between atoms: O_3  and  C_8
REMARK    5  A    between atoms: C_4  and  C_11
REMARK    6  A    between atoms: C_5  and  C_20
REMARK    7  A    between atoms: C_8  and  C_13
REMARK    8  A    between atoms: C_10  and  O_14
REMARK    9  A    between atoms: C_11  and  C_20
REMARK   10  A    between atoms: O_12  and  C_20
REMARK                            x       y       z     vdW  Elec       q    Type
REMARK                         _______ _______ _______ _____ _____    ______ ____
ROOT
ATOM      1  C   UNL     1       4.745  60.638  21.186  0.00  0.00    +0.000 C 
ENDROOT
BRANCH   1   3
ATOM      2  C   UNL     1       4.221  56.850  21.358  0.00  0.00    +0.000 A 
ATOM      3  C   UNL     1       4.690  59.224  21.715  0.00  0.00    +0.000 A 
ATOM      4  C   UNL     1       4.973  57.638  23.529  0.00  0.00    +0.000 A 
ATOM      5  C   UNL     1       4.576  56.597  22.691  0.00  0.00    +0.000 A 
ATOM      6  C   UNL     1       4.278  58.169  20.883  0.00  0.00    +0.000 A 
ATOM      7  C   UNL     1       5.024  58.944  23.046  0.00  0.00    +0.000 A 
BRANCH   2   8
ATOM      8  C   UNL     1       3.773  55.729  20.445  0.00  0.00    +0.000 C 
ATOM      9  C   UNL     1       3.982  54.353  21.064  0.00  0.00    +0.000 C 
BRANCH   8  10
ATOM     10  O   UNL     1       4.479  55.789  19.207  0.00  0.00    +0.000 OA
ATOM     11  H   UNL     1       4.404  56.682  18.835  0.00  0.00    +0.000 HD
ENDBRANCH   8  10
ENDBRANCH   2   8
ENDBRANCH   1   3
BRANCH   1  12
ATOM     12  C   UNL     1       5.958  61.499  21.601  0.00  0.00    +0.000 C 
BRANCH  12  13
ATOM     13  C   UNL     1       7.169  61.592  20.659  0.00  0.00    +0.000 C 
ATOM     14  C   UNL     1       7.373  62.910  19.893  0.00  0.00    +0.000 C 
ATOM     15  C   UNL     1       7.851  62.516  18.496  0.00  0.00    +0.000 C 
ATOM     16  C   UNL     1       8.275  61.054  18.607  0.00  0.00    +0.000 C 
ATOM     17  C   UNL     1       7.267  60.492  19.604  0.00  0.00    +0.000 C 
BRANCH  16  18
ATOM     18  O   UNL     1       8.166  60.350  17.378  0.00  0.00    +0.000 OA
BRANCH  18  19
ATOM     19  C   UNL     1       7.889  58.963  17.555  0.00  0.00    +0.000 C 
ATOM     20  C   UNL     1       7.554  58.369  16.200  0.00  0.00    +0.000 C 
ENDBRANCH  18  19
ENDBRANCH  16  18
ENDBRANCH  12  13
BRANCH  12  21
ATOM     21  O   UNL     1       5.541  62.815  21.977  0.00  0.00    +0.000 OA
ATOM     22  H   UNL     1       6.027  63.095  22.768  0.00  0.00    +0.000 HD
ENDBRANCH  12  21
ENDBRANCH   1  12
TORSDOF 8
ENDMDL

