=
 OpenBabel12172413133D

 25 26  0  0  1  0  0  0  0  0999 V2000
    7.6970   61.2350   18.8060 C   0  0  1  0  0  3  0  0  0  0  0  0
    6.0280   61.6500   20.5210 C   0  0  2  0  0  3  0  0  0  0  0  0
    7.4920   62.6610   19.0300 N   0  0  0  0  0  4  0  0  0  0  0  0
    6.5150   60.5870   19.5260 C   0  0  0  0  0  2  0  0  0  0  0  0
    7.0580   62.7680   20.4180 C   0  0  0  0  0  2  0  0  0  0  0  0
    6.7750   63.0240   18.4020 H   0  0  0  0  0  0  0  0  0  0  0  0
    8.3380   63.2030   18.8510 H   0  0  0  0  0  0  0  0  0  0  0  0
    5.6840   61.1990   21.9490 C   0  0  1  0  0  3  0  0  0  0  0  0
    5.7750   62.3070   22.8510 O   0  0  0  0  0  0  0  0  0  0  0  0
    6.6470   62.7240   22.7640 H   0  0  0  0  0  0  0  0  0  0  0  0
    4.3790   60.4090   22.1960 C   0  0  0  0  0  2  0  0  0  0  0  0
    4.3780   56.7040   21.2760 C   0  0  0  0  0  0  0  0  0  0  0  0
    4.9310   56.9200   23.6260 C   0  0  0  0  0  3  0  0  0  0  0  0
    4.4940   58.9080   22.3080 C   0  0  0  0  0  0  0  0  0  0  0  0
    4.2610   58.0920   21.1870 C   0  0  0  0  0  3  0  0  0  0  0  0
    4.7200   56.1260   22.5010 C   0  0  0  0  0  3  0  0  0  0  0  0
    4.8130   58.3060   23.5320 C   0  0  0  0  0  3  0  0  0  0  0  0
    4.1880   55.8120   20.2570 O   0  0  0  0  0  0  0  0  0  0  0  0
    3.3550   56.2290   19.1830 C   0  0  0  0  0  1  0  0  0  0  0  0
    7.6530   60.9170   17.4290 O   0  0  0  0  0  0  0  0  0  0  0  0
    8.9100   60.5160   16.9090 C   0  0  1  0  0  3  0  0  0  0  0  0
    7.3540   58.6590   16.1520 C   0  0  0  0  0  1  0  0  0  0  0  0
    8.7910   59.0660   16.4370 C   0  0  0  0  0  2  0  0  0  0  0  0
    9.2840   61.3530   15.8280 O   0  0  0  0  0  0  0  0  0  0  0  0
    8.9120   61.0010   15.0030 H   0  0  0  0  0  0  0  0  0  0  0  0
  1 20  1  6  0  0  0
  1  3  1  0  0  0  0
  1  4  1  0  0  0  0
  2  8  1  1  0  0  0
  3  5  1  0  0  0  0
  4  2  1  0  0  0  0
  5  2  1  0  0  0  0
  6  3  1  0  0  0  0
  7  3  1  0  0  0  0
  8 11  1  6  0  0  0
  8  9  1  0  0  0  0
 10  9  1  0  0  0  0
 11 14  1  0  0  0  0
 12 16  1  0  0  0  0
 14 17  2  0  0  0  0
 15 12  2  0  0  0  0
 15 14  1  0  0  0  0
 16 13  2  0  0  0  0
 17 13  1  0  0  0  0
 18 12  1  0  0  0  0
 19 18  1  0  0  0  0
 21 23  1  6  0  0  0
 21 20  1  0  0  0  0
 22 23  1  0  0  0  0
 24 21  1  0  0  0  0
 25 24  1  0  0  0  0
M  END
>  <MODEL>
1

>  <REMARK>
 VINA RESULT:      -7.1      0.000      0.000
  Name = 
  11 active torsions:
  status: ('A' for Active; 'I' for Inactive)
    1  A    between atoms: C_1  and  O_7
    2  A    between atoms: C_3  and  C_16
    3  A    between atoms: C_4  and  C_10
    4  A    between atoms: C_4  and  O_12
    5  A    between atoms: C_4  and  C_16
    6  A    between atoms: C_5  and  O_15
    7  A    between atoms: C_6  and  O_14
    8  A    between atoms: C_6  and  O_15
    9  A    between atoms: C_6  and  C_18
   10  A    between atoms: O_7  and  C_11
   11  A    between atoms: C_9  and  C_18
                            x       y       z     vdW  Elec       q    Type
                         _______ _______ _______ _____ _____    ______ ____

>  <TORSDO>
F 9

$$$$
=
 OpenBabel12172413143D

 27 28  0  0  1  0  0  0  0  0999 V2000
    5.6420   60.8060   22.0200 C   0  0  1  0  0  3  0  0  0  0  0  0
    6.6440   60.4000   19.6230 C   0  0  0  0  0  2  0  0  0  0  0  0
    7.3240   62.6450   19.2050 N   0  0  0  0  0  4  0  0  0  0  0  0
    6.8110   62.6090   20.5810 C   0  0  0  0  0  2  0  0  0  0  0  0
    5.9650   61.3460   20.6170 C   0  0  2  0  0  3  0  0  0  0  0  0
    7.6990   61.2570   18.9230 C   0  0  2  0  0  3  0  0  0  0  0  0
    8.1370   63.2590   19.1390 H   0  0  0  0  0  0  0  0  0  0  0  0
    6.6380   63.0070   18.5430 H   0  0  0  0  0  0  0  0  0  0  0  0
    7.6710   61.0000   17.5330 O   0  0  0  0  0  0  0  0  0  0  0  0
    8.9320   60.5870   17.0200 C   0  0  1  0  0  3  0  0  0  0  0  0
    7.3830   58.8080   16.0840 C   0  0  0  0  0  1  0  0  0  0  0  0
    8.7910   59.1390   16.5550 C   0  0  0  0  0  2  0  0  0  0  0  0
    9.2860   61.3910   15.9070 O   0  0  0  0  0  0  0  0  0  0  0  0
    9.9940   60.9560   15.4060 H   0  0  0  0  0  0  0  0  0  0  0  0
    5.7870   61.8520   22.9850 O   0  0  0  0  0  0  0  0  0  0  0  0
    6.6730   61.8080   23.3800 H   0  0  0  0  0  0  0  0  0  0  0  0
    4.3260   60.0310   22.2470 C   0  0  0  0  0  2  0  0  0  0  0  0
    4.3230   58.5620   21.8990 C   0  0  0  0  0  0  0  0  0  0  0  0
    4.3470   55.8540   21.2150 C   0  0  0  0  0  3  0  0  0  0  0  0
    3.9590   56.7830   20.2380 C   0  0  0  0  0  0  0  0  0  0  0  0
    4.6660   57.6000   22.8540 C   0  0  0  0  0  3  0  0  0  0  0  0
    4.6850   56.2520   22.5100 C   0  0  0  0  0  3  0  0  0  0  0  0
    3.9610   58.1390   20.6060 C   0  0  0  0  0  3  0  0  0  0  0  0
    2.4880   55.4610   18.7840 C   0  0  0  0  0  1  0  0  0  0  0  0
    3.6360   56.3570   18.9310 N   0  0  0  0  0  0  0  0  0  0  0  0
    4.6700   55.9870   18.0630 O   0  0  0  0  0  0  0  0  0  0  0  0
    4.3330   55.3540   17.4100 H   0  0  0  0  0  0  0  0  0  0  0  0
  1 17  1  6  0  0  0
  1 15  1  0  0  0  0
  2  5  1  0  0  0  0
  3  4  1  0  0  0  0
  4  5  1  0  0  0  0
  5  1  1  1  0  0  0
  6  9  1  6  0  0  0
  6  3  1  0  0  0  0
  6  2  1  0  0  0  0
  7  3  1  0  0  0  0
  8  3  1  0  0  0  0
 10 12  1  6  0  0  0
 10  9  1  0  0  0  0
 11 12  1  0  0  0  0
 13 10  1  0  0  0  0
 14 13  1  0  0  0  0
 15 16  1  0  0  0  0
 18 17  1  0  0  0  0
 18 21  1  0  0  0  0
 19 22  1  0  0  0  0
 20 23  1  0  0  0  0
 20 19  2  0  0  0  0
 22 21  2  0  0  0  0
 23 18  2  0  0  0  0
 24 25  1  0  0  0  0
 25 20  1  0  0  0  0
 26 25  1  0  0  0  0
 27 26  1  0  0  0  0
M  END
>  <MODEL>
1

>  <REMARK>
 VINA RESULT:      -7.7      0.000      0.000
  Name = 
  12 active torsions:
  status: ('A' for Active; 'I' for Inactive)
    1  A    between atoms: O_2  and  C_6
    2  A    between atoms: O_2  and  C_22
    3  A    between atoms: C_4  and  C_13
    4  A    between atoms: C_6  and  O_16
    5  A    between atoms: C_6  and  C_20
    6  A    between atoms: O_7  and  N_21
    7  A    between atoms: C_8  and  O_12
    8  A    between atoms: C_8  and  C_13
    9  A    between atoms: C_8  and  C_18
   10  A    between atoms: C_9  and  N_21
   11  A    between atoms: C_14  and  C_20
   12  A    between atoms: C_15  and  N_21
                            x       y       z     vdW  Elec       q    Type
                         _______ _______ _______ _____ _____    ______ ____

>  <TORSDO>
F 10

$$$$
=
 OpenBabel12172413143D

 25 26  0  0  1  0  0  0  0  0999 V2000
    8.2420   60.8300   18.1300 C   0  0  0  0  0  0  0  0  0  0  0  0
    7.9560   62.1140   18.6150 C   0  0  0  0  0  3  0  0  0  0  0  0
    6.7530   61.1740   20.4890 C   0  0  0  0  0  3  0  0  0  0  0  0
    7.7710   59.7200   18.8520 C   0  0  0  0  0  3  0  0  0  0  0  0
    7.2170   62.2850   19.7860 C   0  0  0  0  0  3  0  0  0  0  0  0
    7.0120   59.8790   20.0230 C   0  0  0  0  0  0  0  0  0  0  0  0
    9.0830   60.6200   16.8920 C   0  0  2  0  0  3  0  0  0  0  0  0
    8.9690   61.7290   15.9750 N   0  0  0  0  0  4  0  0  0  0  0  0
    9.9000   62.0780   15.7480 H   0  0  0  0  0  0  0  0  0  0  0  0
    8.4230   62.4730   16.4060 H   0  0  0  0  0  0  0  0  0  0  0  0
    8.5060   61.4170   15.1210 H   0  0  0  0  0  0  0  0  0  0  0  0
    8.6730   59.4790   16.1810 O   0  0  0  0  0  0  0  0  0  0  0  0
    9.0890   59.4780   15.3040 H   0  0  0  0  0  0  0  0  0  0  0  0
    6.5030   58.6720   20.7740 C   0  0  0  0  0  2  0  0  0  0  0  0
    5.0990   58.7810   21.4070 C   0  0  1  0  0  3  0  0  0  0  0  0
    3.8090   57.1390   19.8720 C   0  0  0  0  0  2  0  0  0  0  0  0
    4.4930   56.3060   22.0580 C   0  0  0  0  0  2  0  0  0  0  0  0
    4.1310   57.5910   21.2950 C   0  0  1  0  0  3  0  0  0  0  0  0
    3.1990   55.7560   20.0740 C   0  0  2  0  0  3  0  0  0  0  0  0
    4.1070   55.1470   21.1400 C   0  0  0  0  0  2  0  0  0  0  0  0
    3.2260   55.0440   18.8470 O   0  0  0  0  0  0  0  0  0  0  0  0
    1.5050   53.3980   18.9700 C   0  0  0  0  0  1  0  0  0  0  0  0
    1.9250   54.7210   18.3610 C   0  0  0  0  0  2  0  0  0  0  0  0
    5.1910   59.1990   22.7730 O   0  0  0  0  0  0  0  0  0  0  0  0
    6.0710   58.9850   23.1180 H   0  0  0  0  0  0  0  0  0  0  0  0
  1  2  2  0  0  0  0
  1  4  1  0  0  0  0
  2  5  1  0  0  0  0
  4  6  2  0  0  0  0
  5  3  2  0  0  0  0
  6  3  1  0  0  0  0
  6 14  1  0  0  0  0
  7 12  1  6  0  0  0
  7  1  1  0  0  0  0
  8 10  1  0  0  0  0
  8  7  1  0  0  0  0
  9  8  1  0  0  0  0
 11  8  1  0  0  0  0
 13 12  1  0  0  0  0
 15 14  1  1  0  0  0
 15 24  1  0  0  0  0
 16 19  1  0  0  0  0
 16 18  1  0  0  0  0
 18 15  1  6  0  0  0
 18 17  1  0  0  0  0
 19 21  1  6  0  0  0
 19 20  1  0  0  0  0
 20 17  1  0  0  0  0
 23 21  1  0  0  0  0
 23 22  1  0  0  0  0
 24 25  1  0  0  0  0
M  END
>  <MODEL>
1

>  <REMARK>
 VINA RESULT:      -7.1      0.000      0.000
  Name = 
  10 active torsions:
  status: ('A' for Active; 'I' for Inactive)
    1  A    between atoms: C_1  and  C_3
    2  A    between atoms: C_1  and  O_5
    3  A    between atoms: C_1  and  N_18
    4  A    between atoms: O_2  and  C_13
    5  A    between atoms: O_2  and  C_15
    6  A    between atoms: C_6  and  C_11
    7  A    between atoms: C_6  and  C_20
    8  A    between atoms: C_9  and  C_15
    9  A    between atoms: C_11  and  C_12
   10  A    between atoms: C_11  and  O_19
                            x       y       z     vdW  Elec       q    Type
                         _______ _______ _______ _____ _____    ______ ____

>  <TORSDO>
F 9

$$$$
=
 OpenBabel12172413153D

 22 23  0  0  1  0  0  0  0  0999 V2000
    4.6940   60.6500   21.1910 C   0  0  0  0  0  2  0  0  0  0  0  0
    5.0650   58.8540   22.9330 C   0  0  0  0  0  3  0  0  0  0  0  0
    5.0310   57.5220   23.3450 C   0  0  0  0  0  3  0  0  0  0  0  0
    4.1920   58.2050   20.7770 C   0  0  0  0  0  3  0  0  0  0  0  0
    4.5800   56.5320   22.4730 C   0  0  0  0  0  3  0  0  0  0  0  0
    4.6570   59.2100   21.6410 C   0  0  0  0  0  0  0  0  0  0  0  0
    4.1530   56.8610   21.1780 C   0  0  0  0  0  0  0  0  0  0  0  0
    3.6450   55.7960   20.2310 C   0  0  2  0  0  3  0  0  0  0  0  0
    3.5190   54.4330   20.8970 C   0  0  0  0  0  1  0  0  0  0  0  0
    4.5190   55.6800   19.1070 O   0  0  0  0  0  0  0  0  0  0  0  0
    4.6570   56.5570   18.7140 H   0  0  0  0  0  0  0  0  0  0  0  0
    5.9270   61.4860   21.5970 C   0  0  1  0  0  3  0  0  0  0  0  0
    7.1270   61.5660   20.6380 C   0  0  1  0  0  3  0  0  0  0  0  0
    7.8130   62.5460   18.5000 C   0  0  0  0  0  2  0  0  0  0  0  0
    7.1640   60.5060   19.5410 C   0  0  0  0  0  2  0  0  0  0  0  0
    8.1780   61.0650   18.5480 C   0  0  1  0  0  3  0  0  0  0  0  0
    7.3740   62.9030   19.9190 C   0  0  0  0  0  2  0  0  0  0  0  0
    8.0200   60.4140   17.2960 O   0  0  0  0  0  0  0  0  0  0  0  0
    8.4300   58.3100   16.2490 C   0  0  0  0  0  1  0  0  0  0  0  0
    7.7790   59.0140   17.4220 C   0  0  0  0  0  2  0  0  0  0  0  0
    5.5390   62.8050   21.9900 O   0  0  0  0  0  0  0  0  0  0  0  0
    5.0100   62.7600   22.8020 H   0  0  0  0  0  0  0  0  0  0  0  0
  1  6  1  0  0  0  0
  2  3  1  0  0  0  0
  4  7  2  0  0  0  0
  4  6  1  0  0  0  0
  5  3  2  0  0  0  0
  6  2  2  0  0  0  0
  7  5  1  0  0  0  0
  8  9  1  1  0  0  0
  8  7  1  0  0  0  0
 10  8  1  0  0  0  0
 11 10  1  0  0  0  0
 12  1  1  6  0  0  0
 12 21  1  0  0  0  0
 13 12  1  6  0  0  0
 14 16  1  0  0  0  0
 14 17  1  0  0  0  0
 15 13  1  0  0  0  0
 16 18  1  6  0  0  0
 16 15  1  0  0  0  0
 17 13  1  0  0  0  0
 18 20  1  0  0  0  0
 19 20  1  0  0  0  0
 21 22  1  0  0  0  0
M  END
>  <MODEL>
1

>  <REMARK>
 VINA RESULT:      -7.1      0.000      0.000
  Name = 
  10 active torsions:
  status: ('A' for Active; 'I' for Inactive)
    1  A    between atoms: O_1  and  C_13
    2  A    between atoms: O_1  and  C_15
    3  A    between atoms: C_2  and  C_19
    4  A    between atoms: O_4  and  C_19
    5  A    between atoms: C_6  and  O_16
    6  A    between atoms: C_6  and  C_17
    7  A    between atoms: C_6  and  C_20
    8  A    between atoms: C_7  and  C_14
    9  A    between atoms: C_7  and  C_19
   10  A    between atoms: C_12  and  C_15
                            x       y       z     vdW  Elec       q    Type
                         _______ _______ _______ _____ _____    ______ ____

>  <TORSDO>
F 8

$$$$
