
     RDKit          3D

 21 22  0  0  0  0  0  0  0  0999 V2000
    4.6235   59.1927   22.4752 C   0  0  0  0  0  0  0  0  0  0  0  0
    5.6125   57.1777   23.3897 C   0  0  0  0  0  0  0  0  0  0  0  0
    5.1827   57.3292   21.0083 C   0  0  0  0  0  0  0  0  0  0  0  0
    3.8840   56.2394   19.0292 C   0  0  0  0  0  0  0  0  0  0  0  0
    2.7058   54.2711   21.9740 C   0  0  0  0  0  0  0  0  0  0  0  0
    1.8513   53.2780   23.9425 C   0  0  0  0  0  0  0  0  0  0  0  0
    4.1451   60.4357   22.7855 O   0  0  0  0  0  0  0  0  0  0  0  0
    4.6783   58.6283   21.1992 C   0  0  0  0  0  0  0  0  0  0  0  0
    0.7466   52.4226   26.0607 C   0  0  0  0  0  0  0  0  0  0  0  0
    3.1155   55.1094   19.7324 C   0  0  0  0  0  0  0  0  0  0  0  0
    3.6935   61.2408   21.7036 C   0  0  0  0  0  0  0  0  0  0  0  0
    3.0147   57.3502   18.7861 O   0  0  0  0  0  0  0  0  0  0  0  0
    3.1092   53.2068   21.0620 N   0  0  0  0  0  0  0  0  0  0  0  0
    2.5022   52.0398   23.7126 O   0  0  0  0  0  0  0  0  0  0  0  0
    1.5529   53.9133   22.7086 O   0  0  0  0  0  0  0  0  0  0  0  0
    5.2241   56.7226   19.6257 C   0  0  0  0  0  0  0  0  0  0  0  0
    5.0881   58.4573   23.5668 C   0  0  0  0  0  0  0  0  0  0  0  0
    0.5382   53.0535   24.6929 C   0  0  0  0  0  0  0  0  0  0  0  0
    2.3855   55.4383   21.0406 C   0  0  0  0  0  0  0  0  0  0  0  0
    5.6648   56.6177   22.1145 C   0  0  0  0  0  0  0  0  0  0  0  0
    3.9319   53.8641   20.0539 C   0  0  0  0  0  0  0  0  0  0  0  0
  1  7  1  0
  1  8  4  0
  1 17  4  0
  2 17  4  0
  2 20  4  0
  3  8  4  0
  3 16  1  0
  3 20  4  0
  4 10  1  0
  4 12  1  0
  4 16  1  0
  5 13  1  0
  5 15  1  0
  5 19  1  0
  6 14  1  0
  6 15  1  0
  6 18  1  0
  7 11  1  0
  9 18  1  0
 10 19  1  0
 10 21  1  0
 13 21  1  0
M  END
$$$$

     RDKit          3D

 22 23  0  0  0  0  0  0  0  0999 V2000
    2.3863   55.3818   21.0888 C   0  0  0  0  0  0  0  0  0  0  0  0
    1.5668   53.8391   22.7423 O   0  0  0  0  0  0  0  0  0  0  0  0
    3.2023   53.1450   21.1707 N   0  0  0  0  0  0  0  0  0  0  0  0
    5.1286   57.3515   20.9037 C   0  0  0  0  0  0  0  0  0  0  0  0
    5.0659   58.5532   23.4255 C   0  0  0  0  0  0  0  0  0  0  0  0
    1.8441   52.9316   23.8026 C   0  0  0  0  0  0  0  0  0  0  0  0
    4.1192   61.1727   23.7698 O   0  0  0  0  0  0  0  0  0  0  0  0
    3.7905   56.1635   19.0091 C   0  0  0  0  0  0  0  0  0  0  0  0
    4.5758   59.2797   22.3295 C   0  0  0  0  0  0  0  0  0  0  0  0
    5.6425   56.6773   22.0152 C   0  0  0  0  0  0  0  0  0  0  0  0
    3.9517   53.8292   20.1102 C   0  0  0  0  0  0  0  0  0  0  0  0
    2.8715   57.2333   18.7694 O   0  0  0  0  0  0  0  0  0  0  0  0
    5.1363   56.7068   19.5383 C   0  0  0  0  0  0  0  0  0  0  0  0
    0.8241   52.0164   25.9386 C   0  0  0  0  0  0  0  0  0  0  0  0
    4.2393   61.5451   21.4454 C   0  0  0  0  0  0  0  0  0  0  0  0
    2.0443   51.6286   23.2830 O   0  0  0  0  0  0  0  0  0  0  0  0
    5.6045   57.2731   23.2723 C   0  0  0  0  0  0  0  0  0  0  0  0
    3.0844   55.0325   19.7727 C   0  0  0  0  0  0  0  0  0  0  0  0
    4.6140   58.6510   21.0738 C   0  0  0  0  0  0  0  0  0  0  0  0
    0.6259   52.9117   24.7250 C   0  0  0  0  0  0  0  0  0  0  0  0
    4.0235   60.5669   22.5118 N   0  0  0  0  0  0  0  0  0  0  0  0
    2.7266   54.2295   22.0337 C   0  0  0  0  0  0  0  0  0  0  0  0
  1 18  1  0
  1 22  1  0
  2  6  1  0
  2 22  1  0
  3 11  1  0
  3 22  1  0
  4 10  4  0
  4 13  1  0
  4 19  4  0
  5  9  4  0
  5 17  4  0
  6 16  1  0
  6 20  1  0
  7 21  1  0
  8 12  1  0
  8 13  1  0
  8 18  1  0
  9 19  4  0
  9 21  1  0
 10 17  4  0
 11 18  1  0
 14 20  1  0
 15 21  1  0
M  END
$$$$

     RDKit          3D

 20 21  0  0  0  0  0  0  0  0999 V2000
    4.5609   60.9443   21.8000 C   0  0  0  0  0  0  0  0  0  0  0  0
    2.5843   52.6008   23.0175 O   0  0  0  0  0  0  0  0  0  0  0  0
    4.6855   59.4773   22.1403 C   0  0  0  0  0  0  0  0  0  0  0  0
    3.3246   53.7405   21.0342 C   0  0  0  0  0  0  0  0  0  0  0  0
    3.7863   61.6272   22.7529 O   0  0  0  0  0  0  0  0  0  0  0  0
    5.2078   56.1712   20.2771 C   0  0  0  0  0  0  0  0  0  0  0  0
    4.6712   59.0255   23.4679 C   0  0  0  0  0  0  0  0  0  0  0  0
    1.9407   55.7378   21.2139 C   0  0  0  0  0  0  0  0  0  0  0  0
    2.0900   51.2107   24.8912 C   0  0  0  0  0  0  0  0  0  0  0  0
    5.0164   56.7488   22.7329 C   0  0  0  0  0  0  0  0  0  0  0  0
    3.9411   55.7411   19.5059 C   0  0  0  0  0  0  0  0  0  0  0  0
    2.8444   54.9560   20.2451 C   0  0  0  0  0  0  0  0  0  0  0  0
    2.1467   53.4315   21.9518 C   0  0  0  0  0  0  0  0  0  0  0  0
    4.8740   58.5349   21.1144 C   0  0  0  0  0  0  0  0  0  0  0  0
    1.5132   52.1295   23.8321 C   0  0  0  0  0  0  0  0  0  0  0  0
    1.7141   54.8198   22.4144 C   0  0  0  0  0  0  0  0  0  0  0  0
    4.8359   57.6721   23.7618 C   0  0  0  0  0  0  0  0  0  0  0  0
    5.8471   61.5985   21.7825 N   0  0  0  0  0  0  0  0  0  0  0  0
    3.3588   56.8570   18.8256 O   0  0  0  0  0  0  0  0  0  0  0  0
    5.0244   57.1674   21.3971 C   0  0  0  0  0  0  0  0  0  0  0  0
  1  3  1  0
  1  5  1  0
  1 18  1  0
  2 13  1  0
  2 15  1  0
  3  7  4  0
  3 14  4  0
  4 12  1  0
  4 13  1  0
  6 11  1  0
  6 20  1  0
  7 17  4  0
  8 12  1  0
  8 16  1  0
  9 15  1  0
 10 17  4  0
 10 20  4  0
 11 12  1  0
 11 19  1  0
 13 16  1  0
 14 20  4  0
M  END
$$$$

     RDKit          3D

 20 21  0  0  0  0  0  0  0  0999 V2000
    2.6200   52.5819   22.9852 O   0  0  0  0  0  0  0  0  0  0  0  0
    2.7860   54.9208   20.1924 C   0  0  0  0  0  0  0  0  0  0  0  0
    5.0540   56.7080   22.5972 C   0  0  0  0  0  0  0  0  0  0  0  0
    3.2496   56.8135   18.7472 O   0  0  0  0  0  0  0  0  0  0  0  0
    1.7304   54.7969   22.3995 C   0  0  0  0  0  0  0  0  0  0  0  0
    4.5586   60.9063   21.7040 C   0  0  0  0  0  0  0  0  0  0  0  0
    5.1502   56.1337   20.1349 C   0  0  0  0  0  0  0  0  0  0  0  0
    3.2922   53.7088   20.9703 C   0  0  0  0  0  0  0  0  0  0  0  0
    4.9232   57.6302   23.6346 C   0  0  0  0  0  0  0  0  0  0  0  0
    4.8549   58.4975   20.9877 C   0  0  0  0  0  0  0  0  0  0  0  0
    4.7563   58.9845   23.3500 C   0  0  0  0  0  0  0  0  0  0  0  0
    2.1901   51.2008   24.8812 C   0  0  0  0  0  0  0  0  0  0  0  0
    2.1464   53.4058   21.9297 C   0  0  0  0  0  0  0  0  0  0  0  0
    5.0097   57.1289   21.2625 C   0  0  0  0  0  0  0  0  0  0  0  0
    1.5766   52.1094   23.8341 C   0  0  0  0  0  0  0  0  0  0  0  0
    3.4164   61.4318   22.3790 O   0  0  0  0  0  0  0  0  0  0  0  0
    5.7797   61.7282   22.0932 C   0  0  0  0  0  0  0  0  0  0  0  0
    1.9180   55.7092   21.1879 C   0  0  0  0  0  0  0  0  0  0  0  0
    3.8565   55.7012   19.4113 C   0  0  0  0  0  0  0  0  0  0  0  0
    4.7220   59.4358   22.0228 C   0  0  0  0  0  0  0  0  0  0  0  0
  1 13  1  0
  1 15  1  0
  2  8  1  0
  2 18  1  0
  2 19  1  0
  3  9  4  0
  3 14  4  0
  4 19  1  0
  5 13  1  0
  5 18  1  0
  6 16  1  0
  6 17  1  0
  6 20  1  0
  7 14  1  0
  7 19  1  0
  8 13  1  0
  9 11  4  0
 10 14  4  0
 10 20  4  0
 11 20  4  0
 12 15  1  0
M  END
$$$$
