
     RDKit          3D

 21 22  0  0  0  0  0  0  0  0999 V2000
    4.6161   59.3313   22.1344 C   0  0  0  0  0  0  0  0  0  0  0  0
    5.2424   57.2420   23.2633 C   0  0  0  0  0  0  0  0  0  0  0  0
    5.0949   57.4483   20.9273 C   0  0  0  0  0  0  0  0  0  0  0  0
    3.8540   56.0873   19.1075 C   0  0  0  0  0  0  0  0  0  0  0  0
    2.8060   54.2045   22.1718 C   0  0  0  0  0  0  0  0  0  0  0  0
    1.8179   52.9917   23.9180 C   0  0  0  0  0  0  0  0  0  0  0  0
    4.0827   61.0652   23.5924 O   0  0  0  0  0  0  0  0  0  0  0  0
    4.8255   58.7180   20.9297 C   0  0  0  0  0  0  0  0  0  0  0  0
    0.9643   52.1521   26.0001 C   0  0  0  0  0  0  0  0  0  0  0  0
    3.1732   54.9533   19.9465 C   0  0  0  0  0  0  0  0  0  0  0  0
    4.6466   61.6928   21.2341 C   0  0  0  0  0  0  0  0  0  0  0  0
    2.9248   57.0620   18.9003 O   0  0  0  0  0  0  0  0  0  0  0  0
    3.1938   53.2321   21.2201 N   0  0  0  0  0  0  0  0  0  0  0  0
    1.9566   51.6683   23.2185 O   0  0  0  0  0  0  0  0  0  0  0  0
    1.7115   53.8677   22.7948 O   0  0  0  0  0  0  0  0  0  0  0  0
    5.2793   56.8646   19.8318 C   0  0  0  0  0  0  0  0  0  0  0  0
    4.8710   58.5866   23.3489 C   0  0  0  0  0  0  0  0  0  0  0  0
    0.6470   52.8932   24.7304 C   0  0  0  0  0  0  0  0  0  0  0  0
    2.5725   55.4300   21.1885 C   0  0  0  0  0  0  0  0  0  0  0  0
    5.1259   56.6891   21.9715 C   0  0  0  0  0  0  0  0  0  0  0  0
    3.8442   53.8084   20.2342 C   0  0  0  0  0  0  0  0  0  0  0  0
  1  7  1  0
  1  8  2  0
  1 17  1  0
  2 17  2  0
  2 20  1  0
  3  8  1  0
  3 16  1  0
  3 20  2  0
  4 10  1  0
  4 12  1  0
  4 16  1  0
  5 13  1  0
  5 15  1  0
  5 19  1  0
  6 14  1  0
  6 15  1  0
  6 18  1  0
  7 11  1  0
  9 18  1  0
 10 19  1  0
 10 21  1  0
 13 21  1  0
M  END
$$$$

     RDKit          3D

 22 23  0  0  0  0  0  0  0  0999 V2000
    2.6205   55.2415   21.4424 C   0  0  0  0  0  0  0  0  0  0  0  0
    1.5334   53.7416   22.6669 O   0  0  0  0  0  0  0  0  0  0  0  0
    3.0516   52.9737   21.1500 N   0  0  0  0  0  0  0  0  0  0  0  0
    5.0972   57.5808   20.9180 C   0  0  0  0  0  0  0  0  0  0  0  0
    5.0820   58.5686   23.3681 C   0  0  0  0  0  0  0  0  0  0  0  0
    1.8898   52.8413   23.7310 C   0  0  0  0  0  0  0  0  0  0  0  0
    4.2065   61.1085   23.6267 O   0  0  0  0  0  0  0  0  0  0  0  0
    3.8362   56.0234   19.1575 C   0  0  0  0  0  0  0  0  0  0  0  0
    4.5553   59.4747   22.2668 C   0  0  0  0  0  0  0  0  0  0  0  0
    5.4746   56.9076   21.9268 C   0  0  0  0  0  0  0  0  0  0  0  0
    3.7815   53.7294   20.0891 C   0  0  0  0  0  0  0  0  0  0  0  0
    2.9146   57.1192   19.0047 O   0  0  0  0  0  0  0  0  0  0  0  0
    5.1483   56.7497   19.6220 C   0  0  0  0  0  0  0  0  0  0  0  0
    0.7874   51.9721   25.8300 C   0  0  0  0  0  0  0  0  0  0  0  0
    4.3402   61.6757   21.4464 C   0  0  0  0  0  0  0  0  0  0  0  0
    2.0388   51.6420   23.2012 O   0  0  0  0  0  0  0  0  0  0  0  0
    5.5494   57.2838   23.1002 C   0  0  0  0  0  0  0  0  0  0  0  0
    3.0566   54.9576   20.0775 C   0  0  0  0  0  0  0  0  0  0  0  0
    4.6076   58.8737   20.9918 C   0  0  0  0  0  0  0  0  0  0  0  0
    0.5653   52.8353   24.5156 C   0  0  0  0  0  0  0  0  0  0  0  0
    4.2034   60.7524   22.5322 N   0  0  0  0  0  0  0  0  0  0  0  0
    2.7278   54.0670   22.0665 C   0  0  0  0  0  0  0  0  0  0  0  0
  1 18  1  0
  1 22  1  0
  2  6  1  0
  2 22  1  0
  3 11  1  0
  3 22  1  0
  4 10  1  0
  4 13  1  0
  4 19  2  0
  5  9  2  0
  5 17  1  0
  6 16  1  0
  6 20  1  0
  7 21  1  0
  8 12  1  0
  8 13  1  0
  8 18  1  0
  9 19  1  0
  9 21  1  0
 10 17  2  0
 11 18  1  0
 14 20  1  0
 15 21  1  0
M  END
$$$$

     RDKit          3D

 20 21  0  0  0  0  0  0  0  0999 V2000
    4.6755   60.9387   21.7824 C   0  0  0  0  0  0  0  0  0  0  0  0
    2.5623   52.6151   22.9611 O   0  0  0  0  0  0  0  0  0  0  0  0
    4.8681   59.5352   22.0813 C   0  0  0  0  0  0  0  0  0  0  0  0
    3.1563   53.6096   20.9236 C   0  0  0  0  0  0  0  0  0  0  0  0
    3.5570   61.4312   22.3421 O   0  0  0  0  0  0  0  0  0  0  0  0
    5.1586   56.3489   20.2007 C   0  0  0  0  0  0  0  0  0  0  0  0
    4.7443   59.0624   23.5035 C   0  0  0  0  0  0  0  0  0  0  0  0
    1.9737   55.6044   21.3568 C   0  0  0  0  0  0  0  0  0  0  0  0
    2.1262   51.1980   24.7189 C   0  0  0  0  0  0  0  0  0  0  0  0
    4.9092   56.6839   22.7842 C   0  0  0  0  0  0  0  0  0  0  0  0
    3.9081   55.6495   19.5349 C   0  0  0  0  0  0  0  0  0  0  0  0
    2.8227   54.8674   20.3229 C   0  0  0  0  0  0  0  0  0  0  0  0
    1.9756   53.4397   21.9598 C   0  0  0  0  0  0  0  0  0  0  0  0
    5.0881   58.6396   21.0541 C   0  0  0  0  0  0  0  0  0  0  0  0
    1.5129   52.2626   23.7786 C   0  0  0  0  0  0  0  0  0  0  0  0
    1.9648   54.8898   22.5827 C   0  0  0  0  0  0  0  0  0  0  0  0
    4.8759   57.6441   23.8725 C   0  0  0  0  0  0  0  0  0  0  0  0
    5.8089   61.7721   22.1066 N   0  0  0  0  0  0  0  0  0  0  0  0
    3.2936   56.7350   18.8545 O   0  0  0  0  0  0  0  0  0  0  0  0
    4.9857   57.2647   21.4374 C   0  0  0  0  0  0  0  0  0  0  0  0
  1  3  1  0
  1  5  1  0
  1 18  1  0
  2 13  1  0
  2 15  1  0
  3  7  2  0
  3 14  1  0
  4 12  1  0
  4 13  1  0
  6 11  1  0
  6 20  1  0
  7 17  1  0
  8 12  1  0
  8 16  1  0
  9 15  1  0
 10 17  2  0
 10 20  1  0
 11 12  1  0
 11 19  1  0
 13 16  1  0
 14 20  2  0
M  END
$$$$

     RDKit          3D

 20 21  0  0  0  0  0  0  0  0999 V2000
    2.6320   52.6120   22.9497 O   0  0  0  0  0  0  0  0  0  0  0  0
    2.8035   54.8864   20.2804 C   0  0  0  0  0  0  0  0  0  0  0  0
    4.8633   56.6629   22.5014 C   0  0  0  0  0  0  0  0  0  0  0  0
    3.2245   56.7460   18.7897 O   0  0  0  0  0  0  0  0  0  0  0  0
    1.7657   54.6694   22.4215 C   0  0  0  0  0  0  0  0  0  0  0  0
    4.5846   61.0517   21.8152 C   0  0  0  0  0  0  0  0  0  0  0  0
    4.9622   56.1048   20.2411 C   0  0  0  0  0  0  0  0  0  0  0  0
    3.4152   53.8135   20.9394 C   0  0  0  0  0  0  0  0  0  0  0  0
    4.7880   57.5920   23.6230 C   0  0  0  0  0  0  0  0  0  0  0  0
    5.0121   58.5292   20.9610 C   0  0  0  0  0  0  0  0  0  0  0  0
    4.6771   59.0003   23.2932 C   0  0  0  0  0  0  0  0  0  0  0  0
    2.2106   51.2077   24.7721 C   0  0  0  0  0  0  0  0  0  0  0  0
    2.2096   53.3807   21.7962 C   0  0  0  0  0  0  0  0  0  0  0  0
    4.9440   57.0785   21.3102 C   0  0  0  0  0  0  0  0  0  0  0  0
    1.4546   52.1156   23.8188 C   0  0  0  0  0  0  0  0  0  0  0  0
    3.6273   61.5269   22.5273 O   0  0  0  0  0  0  0  0  0  0  0  0
    5.8106   61.9288   21.8356 C   0  0  0  0  0  0  0  0  0  0  0  0
    1.9889   55.4800   21.3062 C   0  0  0  0  0  0  0  0  0  0  0  0
    3.8607   55.6652   19.5336 C   0  0  0  0  0  0  0  0  0  0  0  0
    4.7564   59.4816   21.9890 C   0  0  0  0  0  0  0  0  0  0  0  0
  1 13  1  0
  1 15  1  0
  2  8  1  0
  2 18  1  0
  2 19  1  0
  3  9  2  0
  3 14  1  0
  4 19  1  0
  5 13  1  0
  5 18  1  0
  6 16  1  0
  6 17  1  0
  6 20  1  0
  7 14  1  0
  7 19  1  0
  8 13  1  0
  9 11  1  0
 10 14  2  0
 10 20  1  0
 11 20  2  0
 12 15  1  0
M  END
$$$$
